*SPEF "ieee 1481-1999"
*DESIGN "control_unit"
*DATE "09:19:33 Saturday April 04, 2026"
*VENDOR "The OpenROAD Project"
*PROGRAM "OpenROAD"
*VERSION "edf00dff99f6c40d67a30c0e22a8191c5d2ed9d6"
*DESIGN_FLOW "NAME_SCOPE LOCAL" "PIN_CAP NONE"
*DIVIDER /
*DELIMITER :
*BUS_DELIMITER []
*T_UNIT 1 NS
*C_UNIT 1 PF
*R_UNIT 1 OHM
*L_UNIT 1 HENRY

*NAME_MAP
*3 busy
*4 clk
*5 done
*6 rst
*7 start
*8 state_out[0]
*9 state_out[1]
*10 _0_
*11 _1_
*12 clknet_0_clk
*13 clknet_1_0__leaf_clk
*14 clknet_1_1__leaf_clk
*15 net1
*16 net2
*17 net3
*18 net4
*19 net5
*20 net6
*21 net7
*22 net8
*23 net9
*24 next_state\[0\]
*25 next_state\[1\]
*26 FILLER_0_15
*27 FILLER_0_27
*28 FILLER_0_29
*29 FILLER_0_3
*30 FILLER_0_41
*31 FILLER_0_53
*32 FILLER_0_57
*33 FILLER_0_69
*34 FILLER_1_15
*35 FILLER_1_27
*36 FILLER_1_3
*37 FILLER_1_39
*38 FILLER_1_51
*39 FILLER_1_55
*40 FILLER_1_57
*41 FILLER_1_69
*42 FILLER_2_15
*43 FILLER_2_27
*44 FILLER_2_29
*45 FILLER_2_3
*46 FILLER_2_41
*47 FILLER_2_53
*48 FILLER_2_65
*49 FILLER_2_77
*50 FILLER_3_15
*51 FILLER_3_27
*52 FILLER_3_3
*53 FILLER_3_39
*54 FILLER_3_51
*55 FILLER_3_55
*56 FILLER_3_57
*57 FILLER_3_69
*58 FILLER_4_15
*59 FILLER_4_27
*60 FILLER_4_29
*61 FILLER_4_3
*62 FILLER_4_41
*63 FILLER_4_53
*64 FILLER_4_61
*65 FILLER_4_65
*66 FILLER_4_77
*67 FILLER_5_30
*68 FILLER_5_34
*69 FILLER_5_46
*70 FILLER_5_54
*71 FILLER_5_6
*72 FILLER_6_25
*73 FILLER_6_29
*74 FILLER_6_3
*75 FILLER_6_33
*76 FILLER_6_54
*77 FILLER_6_60
*78 FILLER_7_19
*79 FILLER_7_30
*80 FILLER_7_39
*81 FILLER_7_51
*82 FILLER_7_55
*83 FILLER_7_65
*84 FILLER_7_7
*85 FILLER_7_77
*86 FILLER_8_15
*87 FILLER_8_29
*88 FILLER_8_3
*89 FILLER_8_38
*90 FILLER_8_50
*91 FILLER_8_62
*92 FILLER_8_74
*93 FILLER_8_80
*94 FILLER_9_15
*95 FILLER_9_27
*96 FILLER_9_29
*97 FILLER_9_3
*98 FILLER_9_35
*99 FILLER_9_42
*100 FILLER_9_54
*101 FILLER_9_57
*102 FILLER_9_69
*103 PHY_EDGE_ROW_0_Left_10
*104 PHY_EDGE_ROW_0_Right_0
*105 PHY_EDGE_ROW_1_Left_11
*106 PHY_EDGE_ROW_1_Right_1
*107 PHY_EDGE_ROW_2_Left_12
*108 PHY_EDGE_ROW_2_Right_2
*109 PHY_EDGE_ROW_3_Left_13
*110 PHY_EDGE_ROW_3_Right_3
*111 PHY_EDGE_ROW_4_Left_14
*112 PHY_EDGE_ROW_4_Right_4
*113 PHY_EDGE_ROW_5_Left_15
*114 PHY_EDGE_ROW_5_Right_5
*115 PHY_EDGE_ROW_6_Left_16
*116 PHY_EDGE_ROW_6_Right_6
*117 PHY_EDGE_ROW_7_Left_17
*118 PHY_EDGE_ROW_7_Right_7
*119 PHY_EDGE_ROW_8_Left_18
*120 PHY_EDGE_ROW_8_Right_8
*121 PHY_EDGE_ROW_9_Left_19
*122 PHY_EDGE_ROW_9_Right_9
*123 TAP_TAPCELL_ROW_0_20
*124 TAP_TAPCELL_ROW_0_21
*125 TAP_TAPCELL_ROW_1_22
*126 TAP_TAPCELL_ROW_2_23
*127 TAP_TAPCELL_ROW_3_24
*128 TAP_TAPCELL_ROW_4_25
*129 TAP_TAPCELL_ROW_5_26
*130 TAP_TAPCELL_ROW_6_27
*131 TAP_TAPCELL_ROW_7_28
*132 TAP_TAPCELL_ROW_8_29
*133 TAP_TAPCELL_ROW_9_30
*134 TAP_TAPCELL_ROW_9_31
*135 _2_
*136 _3_
*137 _4_
*138 _5_
*139 _6_
*140 _7_
*141 _8_
*142 _9_
*143 clkbuf_0_clk
*144 clkbuf_1_0__f_clk
*145 clkbuf_1_1__f_clk
*146 hold1
*147 hold2
*148 hold3
*149 input1
*150 input2
*151 output3
*152 output4
*153 output5
*154 output6

*PORTS
busy O
clk I
done O
rst I
start I
state_out[0] O
state_out[1] O

*D_NET *3 0.000958931
*CONN
*P busy O
*I *151:X O *D sky130_fd_sc_hd__buf_2
*CAP
1 busy 0.000479465
2 *151:X 0.000479465
3 busy done 0
*RES
1 *151:X busy 23.2643 
*END

*D_NET *4 0.00239133
*CONN
*P clk I
*I *143:A I *D sky130_fd_sc_hd__clkbuf_16
*CAP
1 clk 0.00115222
2 *143:A 0.00115222
3 *143:A *144:A 5.49544e-05
4 *143:A *150:A 3.19385e-05
5 *143:A *19:8 0
*RES
1 clk *143:A 24.7485 
*END

*D_NET *5 0.0010184
*CONN
*P done O
*I *152:X O *D sky130_fd_sc_hd__buf_2
*CAP
1 done 0.000509199
2 *152:X 0.000509199
3 busy done 0
*RES
1 *152:X done 23.3893 
*END

*D_NET *6 0.000530853
*CONN
*P rst I
*I *149:A I *D sky130_fd_sc_hd__buf_1
*CAP
1 rst 0.000223846
2 *149:A 0.000223846
3 *149:A state_out[1] 8.31618e-05
*RES
1 rst *149:A 19.0336 
*END

*D_NET *7 0.000640399
*CONN
*P start I
*I *150:A I *D sky130_fd_sc_hd__clkbuf_1
*CAP
1 start 0.000290015
2 *150:A 0.000290015
3 *150:A state_out[0] 2.84302e-05
4 *143:A *150:A 3.19385e-05
*RES
1 start *150:A 21.0874 
*END

*D_NET *8 0.000727755
*CONN
*P state_out[0] O
*I *153:X O *D sky130_fd_sc_hd__buf_2
*CAP
1 state_out[0] 0.000349662
2 *153:X 0.000349662
3 *150:A state_out[0] 2.84302e-05
*RES
1 *153:X state_out[0] 20.891 
*END

*D_NET *9 0.000590626
*CONN
*P state_out[1] O
*I *154:X O *D sky130_fd_sc_hd__buf_2
*CAP
1 state_out[1] 0.000242618
2 *154:X 0.000242618
3 state_out[1] *142:CLK 2.22278e-05
4 *149:A state_out[1] 8.31618e-05
*RES
1 *154:X state_out[1] 18.8021 
*END

*D_NET *10 0.000333925
*CONN
*I *141:RESET_B I *D sky130_fd_sc_hd__dfrtp_1
*I *135:Y O *D sky130_fd_sc_hd__inv_2
*CAP
1 *141:RESET_B 0.000166963
2 *135:Y 0.000166963
*RES
1 *135:Y *141:RESET_B 11.8268 
*END

*D_NET *11 0.000501798
*CONN
*I *142:RESET_B I *D sky130_fd_sc_hd__dfrtp_1
*I *140:Y O *D sky130_fd_sc_hd__inv_2
*CAP
1 *142:RESET_B 0.000154589
2 *140:Y 0.000154589
3 *142:RESET_B *135:A 0.000135474
4 *142:RESET_B *15:6 5.71472e-05
*RES
1 *140:Y *142:RESET_B 21.1929 
*END

*D_NET *12 0.00282175
*CONN
*I *145:A I *D sky130_fd_sc_hd__clkbuf_16
*I *144:A I *D sky130_fd_sc_hd__clkbuf_16
*I *143:X O *D sky130_fd_sc_hd__clkbuf_16
*CAP
1 *145:A 0.000488718
2 *144:A 0.000894678
3 *143:X 0
4 *12:4 0.0013834
5 *143:A *144:A 5.49544e-05
*RES
1 *143:X *12:4 9.3 
2 *12:4 *144:A 19.7107 
3 *12:4 *145:A 15.1929 
*END

*D_NET *13 0.000202748
*CONN
*I *141:CLK I *D sky130_fd_sc_hd__dfrtp_1
*I *144:X O *D sky130_fd_sc_hd__clkbuf_16
*CAP
1 *141:CLK 8.39872e-05
2 *144:X 8.39872e-05
3 *141:CLK *141:D 3.47737e-05
*RES
1 *144:X *141:CLK 29.2429 
*END

*D_NET *14 0.000307119
*CONN
*I *142:CLK I *D sky130_fd_sc_hd__dfrtp_1
*I *145:X O *D sky130_fd_sc_hd__clkbuf_16
*CAP
1 *142:CLK 0.000123472
2 *145:X 0.000123472
3 *142:CLK *142:D 3.79467e-05
4 state_out[1] *142:CLK 2.22278e-05
*RES
1 *145:X *142:CLK 29.7786 
*END

*D_NET *15 0.00288128
*CONN
*I *140:A I *D sky130_fd_sc_hd__inv_2
*I *135:A I *D sky130_fd_sc_hd__inv_2
*I *149:X O *D sky130_fd_sc_hd__buf_1
*CAP
1 *140:A 3.82418e-05
2 *135:A 0.000836633
3 *149:X 0.000413245
4 *15:6 0.00128812
5 *135:A *154:A 9.71197e-05
6 *135:A *20:12 1.52978e-05
7 *142:RESET_B *135:A 0.000135474
8 *142:RESET_B *15:6 5.71472e-05
*RES
1 *149:X *15:6 15.9964 
2 *15:6 *135:A 32.7107 
3 *15:6 *140:A 10.0321 
*END

*D_NET *16 0.00132245
*CONN
*I *138:A2 I *D sky130_fd_sc_hd__o21ba_1
*I *150:X O *D sky130_fd_sc_hd__clkbuf_1
*CAP
1 *138:A2 0.000612534
2 *150:X 0.000612534
3 *138:A2 *138:A1 0
4 *138:A2 *141:D 9.73841e-05
*RES
1 *150:X *138:A2 36.6179 
*END

*D_NET *17 0.000962109
*CONN
*I *151:A I *D sky130_fd_sc_hd__buf_2
*I *136:X O *D sky130_fd_sc_hd__or2_1
*CAP
1 *151:A 0.000381495
2 *136:X 0.000381495
3 *151:A *139:B 1.02132e-05
4 *151:A *19:37 5.33334e-05
5 *151:A *20:12 6.578e-05
6 *151:A *20:18 6.97929e-05
*RES
1 *136:X *151:A 35.0464 
*END

*D_NET *18 0.000690892
*CONN
*I *152:A I *D sky130_fd_sc_hd__buf_2
*I *137:X O *D sky130_fd_sc_hd__and2_1
*CAP
1 *152:A 0.000345446
2 *137:X 0.000345446
*RES
1 *137:X *152:A 33.3679 
*END

*D_NET *19 0.00307419
*CONN
*I *137:A I *D sky130_fd_sc_hd__and2_1
*I *136:A I *D sky130_fd_sc_hd__or2_1
*I *146:A I *D sky130_fd_sc_hd__dlygate4sd3_1
*I *148:A I *D sky130_fd_sc_hd__dlygate4sd3_1
*I *153:A I *D sky130_fd_sc_hd__buf_2
*I *141:Q O *D sky130_fd_sc_hd__dfrtp_1
*CAP
1 *137:A 0.000169347
2 *136:A 0
3 *146:A 5.65919e-05
4 *148:A 0
5 *153:A 0.000513019
6 *141:Q 0.000235942
7 *19:37 0.000352177
8 *19:10 0.000569611
9 *19:8 0.000418773
10 *137:A *20:18 3.53302e-05
11 *137:A *20:27 0.000162625
12 *153:A *138:A1 0.00010096
13 *153:A *138:B1_N 0.000166485
14 *153:A *141:D 5.33334e-05
15 *19:37 *138:A1 0
16 *19:37 *139:A 0
17 *19:37 *147:A 0
18 *19:37 *20:18 0.000186662
19 *143:A *19:8 0
20 *151:A *19:37 5.33334e-05
*RES
1 *141:Q *19:8 17.8714 
2 *19:8 *19:10 4.5 
3 *19:10 *153:A 19.3 
4 *19:10 *148:A 9.3 
5 *19:10 *146:A 10.2464 
6 *19:8 *19:37 8.51786 
7 *19:37 *136:A 9.3 
8 *19:37 *137:A 13.0321 
*END

*D_NET *20 0.00522804
*CONN
*I *154:A I *D sky130_fd_sc_hd__buf_2
*I *139:B I *D sky130_fd_sc_hd__xor2_1
*I *137:B I *D sky130_fd_sc_hd__and2_1
*I *138:A1 I *D sky130_fd_sc_hd__o21ba_1
*I *136:B I *D sky130_fd_sc_hd__or2_1
*I *142:Q O *D sky130_fd_sc_hd__dfrtp_1
*CAP
1 *154:A 0.000516689
2 *139:B 3.58312e-05
3 *137:B 0
4 *138:A1 0.000166733
5 *136:B 0
6 *142:Q 0
7 *20:27 0.000234102
8 *20:18 0.000442516
9 *20:12 0.00144182
10 *20:4 0.00154753
11 *138:A1 *138:B1_N 9.90367e-05
12 *135:A *154:A 9.71197e-05
13 *135:A *20:12 1.52978e-05
14 *137:A *20:18 3.53302e-05
15 *137:A *20:27 0.000162625
16 *138:A2 *138:A1 0
17 *151:A *139:B 1.02132e-05
18 *151:A *20:12 6.578e-05
19 *151:A *20:18 6.97929e-05
20 *153:A *138:A1 0.00010096
21 *19:37 *138:A1 0
22 *19:37 *20:18 0.000186662
*RES
1 *142:Q *20:4 9.3 
2 *20:4 *20:12 25.6786 
3 *20:12 *20:18 5.5 
4 *20:18 *136:B 9.3 
5 *20:18 *20:27 1.78571 
6 *20:27 *138:A1 21.4964 
7 *20:27 *137:B 9.3 
8 *20:12 *139:B 10.0321 
9 *20:4 *154:A 18.0679 
*END

*D_NET *21 0.000709997
*CONN
*I *139:A I *D sky130_fd_sc_hd__xor2_1
*I *146:X O *D sky130_fd_sc_hd__dlygate4sd3_1
*CAP
1 *139:A 0.000340543
2 *146:X 0.000340543
3 *139:A *147:A 2.89114e-05
4 *19:37 *139:A 0
*RES
1 *146:X *139:A 31.4214 
*END

*D_NET *22 0.00109524
*CONN
*I *142:D I *D sky130_fd_sc_hd__dfrtp_1
*I *147:X O *D sky130_fd_sc_hd__dlygate4sd3_1
*CAP
1 *142:D 0.000528647
2 *147:X 0.000528647
3 *142:CLK *142:D 3.79467e-05
*RES
1 *147:X *142:D 35.1893 
*END

*D_NET *23 0.000685391
*CONN
*I *138:B1_N I *D sky130_fd_sc_hd__o21ba_1
*I *148:X O *D sky130_fd_sc_hd__dlygate4sd3_1
*CAP
1 *138:B1_N 0.000209935
2 *148:X 0.000209935
3 *138:A1 *138:B1_N 9.90367e-05
4 *153:A *138:B1_N 0.000166485
*RES
1 *148:X *138:B1_N 22.85 
*END

*D_NET *24 0.000647979
*CONN
*I *141:D I *D sky130_fd_sc_hd__dfrtp_1
*I *138:X O *D sky130_fd_sc_hd__o21ba_1
*CAP
1 *141:D 0.000231244
2 *138:X 0.000231244
3 *138:A2 *141:D 9.73841e-05
4 *141:CLK *141:D 3.47737e-05
5 *153:A *141:D 5.33334e-05
*RES
1 *138:X *141:D 32.3143 
*END

*D_NET *25 0.00134068
*CONN
*I *147:A I *D sky130_fd_sc_hd__dlygate4sd3_1
*I *139:X O *D sky130_fd_sc_hd__xor2_1
*CAP
1 *147:A 0.000655884
2 *139:X 0.000655884
3 *139:A *147:A 2.89114e-05
4 *19:37 *147:A 0
*RES
1 *139:X *147:A 38.4929 
*END
