*SPEF "ieee 1481-1999"
*DESIGN "clb"
*DATE "14:01:33 Monday June 01, 2026"
*VENDOR "The OpenROAD Project"
*PROGRAM "OpenROAD"
*VERSION "edf00dff99f6c40d67a30c0e22a8191c5d2ed9d6"
*DESIGN_FLOW "NAME_SCOPE LOCAL" "PIN_CAP NONE"
*DIVIDER /
*DELIMITER :
*BUS_DELIMITER []
*T_UNIT 1 NS
*C_UNIT 1 PF
*R_UNIT 1 OHM
*L_UNIT 1 HENRY

*NAME_MAP
*1 I[0]
*2 I[1]
*3 I[2]
*4 I[3]
*5 net4
*8 cin
*9 clk
*10 cout
*11 ff_en
*12 rst
*13 net1
*14 net2
*15 net3
*16 ANTENNA_input1_A
*17 ANTENNA_input2_A
*18 FILLER_0_109
*19 FILLER_0_113
*20 FILLER_0_15
*21 FILLER_0_27
*22 FILLER_0_29
*23 FILLER_0_3
*24 FILLER_0_41
*25 FILLER_0_53
*26 FILLER_0_57
*27 FILLER_0_63
*28 FILLER_0_69
*29 FILLER_0_81
*30 FILLER_0_85
*31 FILLER_0_97
*32 FILLER_10_109
*33 FILLER_10_113
*34 FILLER_10_15
*35 FILLER_10_27
*36 FILLER_10_29
*37 FILLER_10_3
*38 FILLER_10_41
*39 FILLER_10_53
*40 FILLER_10_65
*41 FILLER_10_77
*42 FILLER_10_83
*43 FILLER_10_85
*44 FILLER_10_97
*45 FILLER_11_105
*46 FILLER_11_111
*47 FILLER_11_113
*48 FILLER_11_15
*49 FILLER_11_27
*50 FILLER_11_3
*51 FILLER_11_39
*52 FILLER_11_51
*53 FILLER_11_55
*54 FILLER_11_57
*55 FILLER_11_69
*56 FILLER_11_81
*57 FILLER_11_93
*58 FILLER_12_109
*59 FILLER_12_113
*60 FILLER_12_15
*61 FILLER_12_27
*62 FILLER_12_29
*63 FILLER_12_3
*64 FILLER_12_41
*65 FILLER_12_53
*66 FILLER_12_65
*67 FILLER_12_77
*68 FILLER_12_83
*69 FILLER_12_85
*70 FILLER_12_97
*71 FILLER_13_105
*72 FILLER_13_111
*73 FILLER_13_113
*74 FILLER_13_15
*75 FILLER_13_27
*76 FILLER_13_3
*77 FILLER_13_39
*78 FILLER_13_51
*79 FILLER_13_55
*80 FILLER_13_57
*81 FILLER_13_69
*82 FILLER_13_81
*83 FILLER_13_93
*84 FILLER_14_109
*85 FILLER_14_113
*86 FILLER_14_15
*87 FILLER_14_27
*88 FILLER_14_29
*89 FILLER_14_3
*90 FILLER_14_41
*91 FILLER_14_53
*92 FILLER_14_57
*93 FILLER_14_69
*94 FILLER_14_81
*95 FILLER_14_85
*96 FILLER_14_97
*97 FILLER_1_105
*98 FILLER_1_111
*99 FILLER_1_113
*100 FILLER_1_15
*101 FILLER_1_27
*102 FILLER_1_3
*103 FILLER_1_39
*104 FILLER_1_51
*105 FILLER_1_55
*106 FILLER_1_57
*107 FILLER_1_69
*108 FILLER_1_81
*109 FILLER_1_93
*110 FILLER_2_109
*111 FILLER_2_113
*112 FILLER_2_15
*113 FILLER_2_27
*114 FILLER_2_29
*115 FILLER_2_3
*116 FILLER_2_41
*117 FILLER_2_53
*118 FILLER_2_65
*119 FILLER_2_77
*120 FILLER_2_83
*121 FILLER_2_85
*122 FILLER_2_97
*123 FILLER_3_105
*124 FILLER_3_111
*125 FILLER_3_113
*126 FILLER_3_15
*127 FILLER_3_27
*128 FILLER_3_3
*129 FILLER_3_39
*130 FILLER_3_51
*131 FILLER_3_55
*132 FILLER_3_57
*133 FILLER_3_69
*134 FILLER_3_81
*135 FILLER_3_93
*136 FILLER_4_109
*137 FILLER_4_113
*138 FILLER_4_15
*139 FILLER_4_27
*140 FILLER_4_29
*141 FILLER_4_3
*142 FILLER_4_41
*143 FILLER_4_53
*144 FILLER_4_65
*145 FILLER_4_77
*146 FILLER_4_83
*147 FILLER_4_85
*148 FILLER_4_97
*149 FILLER_5_105
*150 FILLER_5_111
*151 FILLER_5_113
*152 FILLER_5_15
*153 FILLER_5_27
*154 FILLER_5_3
*155 FILLER_5_39
*156 FILLER_5_51
*157 FILLER_5_55
*158 FILLER_5_57
*159 FILLER_5_69
*160 FILLER_5_81
*161 FILLER_5_93
*162 FILLER_6_109
*163 FILLER_6_113
*164 FILLER_6_15
*165 FILLER_6_27
*166 FILLER_6_29
*167 FILLER_6_3
*168 FILLER_6_41
*169 FILLER_6_53
*170 FILLER_6_65
*171 FILLER_6_77
*172 FILLER_6_83
*173 FILLER_6_85
*174 FILLER_6_97
*175 FILLER_7_105
*176 FILLER_7_111
*177 FILLER_7_113
*178 FILLER_7_14
*179 FILLER_7_26
*180 FILLER_7_38
*181 FILLER_7_50
*182 FILLER_7_57
*183 FILLER_7_69
*184 FILLER_7_8
*185 FILLER_7_81
*186 FILLER_7_93
*187 FILLER_8_109
*188 FILLER_8_113
*189 FILLER_8_15
*190 FILLER_8_27
*191 FILLER_8_29
*192 FILLER_8_3
*193 FILLER_8_41
*194 FILLER_8_53
*195 FILLER_8_65
*196 FILLER_8_77
*197 FILLER_8_83
*198 FILLER_8_85
*199 FILLER_8_97
*200 FILLER_9_105
*201 FILLER_9_111
*202 FILLER_9_113
*203 FILLER_9_20
*204 FILLER_9_32
*205 FILLER_9_44
*206 FILLER_9_57
*207 FILLER_9_69
*208 FILLER_9_8
*209 FILLER_9_81
*210 FILLER_9_93
*211 PHY_EDGE_ROW_0_Left_15
*212 PHY_EDGE_ROW_0_Right_0
*213 PHY_EDGE_ROW_10_Left_25
*214 PHY_EDGE_ROW_10_Right_10
*215 PHY_EDGE_ROW_11_Left_26
*216 PHY_EDGE_ROW_11_Right_11
*217 PHY_EDGE_ROW_12_Left_27
*218 PHY_EDGE_ROW_12_Right_12
*219 PHY_EDGE_ROW_13_Left_28
*220 PHY_EDGE_ROW_13_Right_13
*221 PHY_EDGE_ROW_14_Left_29
*222 PHY_EDGE_ROW_14_Right_14
*223 PHY_EDGE_ROW_1_Left_16
*224 PHY_EDGE_ROW_1_Right_1
*225 PHY_EDGE_ROW_2_Left_17
*226 PHY_EDGE_ROW_2_Right_2
*227 PHY_EDGE_ROW_3_Left_18
*228 PHY_EDGE_ROW_3_Right_3
*229 PHY_EDGE_ROW_4_Left_19
*230 PHY_EDGE_ROW_4_Right_4
*231 PHY_EDGE_ROW_5_Left_20
*232 PHY_EDGE_ROW_5_Right_5
*233 PHY_EDGE_ROW_6_Left_21
*234 PHY_EDGE_ROW_6_Right_6
*235 PHY_EDGE_ROW_7_Left_22
*236 PHY_EDGE_ROW_7_Right_7
*237 PHY_EDGE_ROW_8_Left_23
*238 PHY_EDGE_ROW_8_Right_8
*239 PHY_EDGE_ROW_9_Left_24
*240 PHY_EDGE_ROW_9_Right_9
*241 TAP_TAPCELL_ROW_0_30
*242 TAP_TAPCELL_ROW_0_31
*243 TAP_TAPCELL_ROW_0_32
*244 TAP_TAPCELL_ROW_0_33
*245 TAP_TAPCELL_ROW_10_52
*246 TAP_TAPCELL_ROW_10_53
*247 TAP_TAPCELL_ROW_11_54
*248 TAP_TAPCELL_ROW_11_55
*249 TAP_TAPCELL_ROW_12_56
*250 TAP_TAPCELL_ROW_12_57
*251 TAP_TAPCELL_ROW_13_58
*252 TAP_TAPCELL_ROW_13_59
*253 TAP_TAPCELL_ROW_14_60
*254 TAP_TAPCELL_ROW_14_61
*255 TAP_TAPCELL_ROW_14_62
*256 TAP_TAPCELL_ROW_14_63
*257 TAP_TAPCELL_ROW_1_34
*258 TAP_TAPCELL_ROW_1_35
*259 TAP_TAPCELL_ROW_2_36
*260 TAP_TAPCELL_ROW_2_37
*261 TAP_TAPCELL_ROW_3_38
*262 TAP_TAPCELL_ROW_3_39
*263 TAP_TAPCELL_ROW_4_40
*264 TAP_TAPCELL_ROW_4_41
*265 TAP_TAPCELL_ROW_5_42
*266 TAP_TAPCELL_ROW_5_43
*267 TAP_TAPCELL_ROW_6_44
*268 TAP_TAPCELL_ROW_6_45
*269 TAP_TAPCELL_ROW_7_46
*270 TAP_TAPCELL_ROW_7_47
*271 TAP_TAPCELL_ROW_8_48
*272 TAP_TAPCELL_ROW_8_49
*273 TAP_TAPCELL_ROW_9_50
*274 TAP_TAPCELL_ROW_9_51
*275 _0_
*276 clb_4
*277 input1
*278 input2
*279 output3

*PORTS
I[0] I
I[1] I
I[2] I
I[3] I
O O
cin I
clk I
cout O
ff_en I
rst I

*D_NET *4 0.000879061
*CONN
*P I[3] I
*I *16:DIODE I *D sky130_fd_sc_hd__diode_2
*I *277:A I *D sky130_fd_sc_hd__clkbuf_1
*CAP
1 I[3] 0.000281344
2 *16:DIODE 9.0563e-05
3 *277:A 0
4 *4:11 0.000371907
5 *4:11 *275:A 5.92267e-05
6 *4:11 *8:13 7.60209e-05
*RES
1 I[3] *4:11 10.9479 
2 *4:11 *277:A 9.3 
3 *4:11 *16:DIODE 10.6571 
*END

*D_NET *5 0.000845225
*CONN
*P O O
*I *276:LO O *D sky130_fd_sc_hd__conb_1
*CAP
1 O 0.000422612
2 *276:LO 0.000422612
3 O cout 0
4 O *15:10 0
*RES
1 *276:LO O 21.8357 
*END

*D_NET *8 0.000743261
*CONN
*P cin I
*I *278:A I *D sky130_fd_sc_hd__clkbuf_1
*I *17:DIODE I *D sky130_fd_sc_hd__diode_2
*CAP
1 cin 0.0002151
2 *278:A 0
3 *17:DIODE 8.85338e-05
4 *8:13 0.000303633
5 *17:DIODE *275:A 5.71472e-05
6 *8:13 *275:A 2.8266e-06
7 *4:11 *8:13 7.60209e-05
*RES
1 cin *8:13 9.59007 
2 *8:13 *17:DIODE 11.0857 
3 *8:13 *278:A 9.3 
*END

*D_NET *10 0.000950737
*CONN
*P cout O
*I *279:X O *D sky130_fd_sc_hd__buf_2
*CAP
1 cout 0.000475368
2 *279:X 0.000475368
3 O cout 0
*RES
1 *279:X cout 22.05 
*END

*D_NET *13 0.000876402
*CONN
*I *275:A I *D sky130_fd_sc_hd__and2_1
*I *277:X O *D sky130_fd_sc_hd__clkbuf_1
*CAP
1 *275:A 0.000285616
2 *277:X 0.000285616
3 *275:A *275:B 0.00018597
4 *17:DIODE *275:A 5.71472e-05
5 *4:11 *275:A 5.92267e-05
6 *8:13 *275:A 2.8266e-06
*RES
1 *277:X *275:A 33.4393 
*END

*D_NET *14 0.000546324
*CONN
*I *275:B I *D sky130_fd_sc_hd__and2_1
*I *278:X O *D sky130_fd_sc_hd__clkbuf_1
*CAP
1 *275:B 0.000180177
2 *278:X 0.000180177
3 *275:A *275:B 0.00018597
*RES
1 *278:X *275:B 22.0464 
*END

*D_NET *15 0.00506237
*CONN
*I *279:A I *D sky130_fd_sc_hd__buf_2
*I *275:X O *D sky130_fd_sc_hd__and2_1
*CAP
1 *279:A 0
2 *275:X 0.00253118
3 *15:10 0.00253118
4 O *15:10 0
*RES
1 *275:X *15:10 49.3357 
2 *15:10 *279:A 13.8 
*END
