*SPEF "ieee 1481-1999"
*DESIGN "nano_cpu"
*DATE "19:43:36 Sunday April 05, 2026"
*VENDOR "The OpenROAD Project"
*PROGRAM "OpenROAD"
*VERSION "edf00dff99f6c40d67a30c0e22a8191c5d2ed9d6"
*DESIGN_FLOW "NAME_SCOPE LOCAL" "PIN_CAP NONE"
*DIVIDER /
*DELIMITER :
*BUS_DELIMITER []
*T_UNIT 1 NS
*C_UNIT 1 PF
*R_UNIT 1 OHM
*L_UNIT 1 HENRY

*NAME_MAP
*3 clk
*4 instruction[0]
*5 instruction[1]
*6 instruction[2]
*7 instruction[3]
*8 instruction[4]
*9 instruction[5]
*10 instruction[6]
*11 instruction[7]
*12 out_port[0]
*13 out_port[1]
*14 out_port[2]
*15 out_port[3]
*16 out_port[4]
*17 out_port[5]
*18 out_port[6]
*19 out_port[7]
*20 pc[0]
*21 pc[1]
*22 pc[2]
*23 pc[3]
*24 pc[4]
*25 pc[5]
*26 pc[6]
*27 pc[7]
*28 reset
*29 _000_
*30 _001_
*31 _002_
*32 _003_
*33 _004_
*34 _005_
*35 _006_
*36 _007_
*37 _008_
*38 _009_
*39 _010_
*40 _011_
*41 _012_
*42 _013_
*43 _014_
*44 _015_
*45 _016_
*46 _017_
*47 _018_
*48 _019_
*49 _020_
*50 _021_
*51 _022_
*52 _023_
*53 _024_
*54 _025_
*55 _026_
*56 _027_
*57 _028_
*58 _029_
*59 _030_
*60 _031_
*61 _032_
*62 _033_
*63 _034_
*64 _035_
*65 _036_
*66 _037_
*67 _038_
*68 _039_
*69 _040_
*70 _041_
*71 _042_
*72 _043_
*73 _044_
*74 _045_
*75 _046_
*76 _047_
*77 _048_
*78 _049_
*79 _050_
*80 _051_
*81 _052_
*82 _053_
*83 _054_
*84 _055_
*85 _056_
*86 _057_
*87 _058_
*88 _059_
*89 _060_
*90 _061_
*91 _062_
*92 _063_
*93 _064_
*94 _065_
*95 _066_
*96 _067_
*97 _068_
*98 _069_
*99 _070_
*100 _071_
*101 _072_
*102 _073_
*103 _074_
*104 _075_
*105 _076_
*106 _077_
*107 _078_
*108 _079_
*109 _080_
*110 _081_
*111 _082_
*112 _083_
*113 _084_
*114 _085_
*115 _086_
*116 _087_
*117 _088_
*118 _089_
*119 _090_
*120 _091_
*121 _092_
*122 _093_
*123 _094_
*124 _095_
*125 _096_
*126 _097_
*127 _098_
*128 _099_
*129 _100_
*130 _101_
*131 _102_
*132 _103_
*133 _104_
*134 _105_
*135 _106_
*136 _107_
*137 _108_
*138 _109_
*139 _110_
*140 _111_
*141 _112_
*142 _113_
*143 _114_
*144 _115_
*145 _116_
*146 _117_
*147 _118_
*148 _119_
*149 _120_
*150 _121_
*151 _122_
*152 _123_
*153 _124_
*154 _125_
*155 _126_
*156 _127_
*157 _128_
*158 _129_
*159 acc\[0\]
*160 acc\[1\]
*161 acc\[2\]
*162 acc\[3\]
*163 acc\[4\]
*164 acc\[5\]
*165 acc\[6\]
*166 acc\[7\]
*167 clknet_0_clk
*168 clknet_1_0__leaf_clk
*169 clknet_1_1__leaf_clk
*170 net1
*171 net10
*172 net11
*173 net12
*174 net13
*175 net14
*176 net15
*177 net16
*178 net17
*179 net18
*180 net19
*181 net2
*182 net20
*183 net21
*184 net22
*185 net23
*186 net24
*187 net25
*188 net26
*189 net27
*190 net28
*191 net29
*192 net3
*193 net30
*194 net31
*195 net32
*196 net33
*197 net34
*198 net35
*199 net36
*200 net37
*201 net38
*202 net39
*203 net4
*204 net40
*205 net41
*206 net42
*207 net43
*208 net44
*209 net45
*210 net46
*211 net47
*212 net48
*213 net49
*214 net5
*215 net50
*216 net51
*217 net52
*218 net53
*219 net54
*220 net55
*221 net56
*222 net57
*223 net58
*224 net59
*225 net6
*226 net60
*227 net61
*228 net62
*229 net63
*230 net64
*231 net65
*232 net66
*233 net67
*234 net68
*235 net69
*236 net7
*237 net70
*238 net71
*239 net72
*240 net73
*241 net74
*242 net75
*243 net76
*244 net77
*245 net78
*246 net79
*247 net8
*248 net80
*249 net81
*250 net82
*251 net83
*252 net84
*253 net9
*254 state
*255 ANTENNA_clkbuf_0_clk_A
*256 ANTENNA_input1_A
*257 ANTENNA_input2_A
*258 ANTENNA_input3_A
*259 ANTENNA_input4_A
*260 ANTENNA_input5_A
*261 ANTENNA_input6_A
*262 ANTENNA_input7_A
*263 ANTENNA_input8_A
*264 ANTENNA_input9_A
*265 FILLER_0_109
*266 FILLER_0_113
*267 FILLER_0_125
*268 FILLER_0_137
*269 FILLER_0_15
*270 FILLER_0_21
*271 FILLER_0_27
*272 FILLER_0_3
*273 FILLER_0_34
*274 FILLER_0_41
*275 FILLER_0_53
*276 FILLER_0_57
*277 FILLER_0_63
*278 FILLER_0_73
*279 FILLER_0_81
*280 FILLER_0_85
*281 FILLER_0_97
*282 FILLER_10_105
*283 FILLER_10_29
*284 FILLER_10_3
*285 FILLER_10_41
*286 FILLER_10_51
*287 FILLER_10_70
*288 FILLER_10_74
*289 FILLER_10_80
*290 FILLER_10_85
*291 FILLER_11_102
*292 FILLER_11_110
*293 FILLER_11_113
*294 FILLER_11_126
*295 FILLER_11_130
*296 FILLER_11_22
*297 FILLER_11_55
*298 FILLER_11_60
*299 FILLER_11_72
*300 FILLER_11_84
*301 FILLER_11_92
*302 FILLER_12_113
*303 FILLER_12_125
*304 FILLER_12_135
*305 FILLER_12_23
*306 FILLER_12_27
*307 FILLER_12_29
*308 FILLER_12_57
*309 FILLER_12_61
*310 FILLER_12_8
*311 FILLER_12_85
*312 FILLER_13_100
*313 FILLER_13_113
*314 FILLER_13_137
*315 FILLER_13_15
*316 FILLER_13_27
*317 FILLER_13_3
*318 FILLER_13_31
*319 FILLER_13_35
*320 FILLER_13_47
*321 FILLER_13_53
*322 FILLER_13_57
*323 FILLER_13_64
*324 FILLER_13_76
*325 FILLER_13_88
*326 FILLER_14_107
*327 FILLER_14_137
*328 FILLER_14_20
*329 FILLER_14_24
*330 FILLER_14_45
*331 FILLER_14_51
*332 FILLER_14_71
*333 FILLER_14_8
*334 FILLER_14_80
*335 FILLER_14_95
*336 FILLER_15_108
*337 FILLER_15_12
*338 FILLER_15_138
*339 FILLER_15_26
*340 FILLER_15_38
*341 FILLER_15_50
*342 FILLER_15_66
*343 FILLER_15_78
*344 FILLER_16_106
*345 FILLER_16_115
*346 FILLER_16_119
*347 FILLER_16_125
*348 FILLER_16_26
*349 FILLER_16_29
*350 FILLER_16_3
*351 FILLER_16_41
*352 FILLER_16_45
*353 FILLER_16_51
*354 FILLER_16_63
*355 FILLER_16_75
*356 FILLER_16_94
*357 FILLER_17_100
*358 FILLER_17_113
*359 FILLER_17_125
*360 FILLER_17_133
*361 FILLER_17_33
*362 FILLER_17_39
*363 FILLER_17_57
*364 FILLER_17_69
*365 FILLER_17_7
*366 FILLER_17_76
*367 FILLER_17_88
*368 FILLER_18_109
*369 FILLER_18_121
*370 FILLER_18_133
*371 FILLER_18_27
*372 FILLER_18_3
*373 FILLER_18_39
*374 FILLER_18_51
*375 FILLER_18_63
*376 FILLER_18_67
*377 FILLER_18_79
*378 FILLER_18_83
*379 FILLER_18_85
*380 FILLER_18_97
*381 FILLER_19_109
*382 FILLER_19_113
*383 FILLER_19_128
*384 FILLER_19_137
*385 FILLER_19_24
*386 FILLER_19_35
*387 FILLER_19_47
*388 FILLER_19_55
*389 FILLER_19_62
*390 FILLER_19_69
*391 FILLER_19_76
*392 FILLER_19_88
*393 FILLER_19_97
*394 FILLER_1_103
*395 FILLER_1_111
*396 FILLER_1_113
*397 FILLER_1_125
*398 FILLER_1_137
*399 FILLER_1_15
*400 FILLER_1_27
*401 FILLER_1_3
*402 FILLER_1_44
*403 FILLER_1_57
*404 FILLER_1_61
*405 FILLER_1_79
*406 FILLER_1_91
*407 FILLER_20_111
*408 FILLER_20_134
*409 FILLER_20_138
*410 FILLER_20_20
*411 FILLER_20_27
*412 FILLER_20_3
*413 FILLER_20_45
*414 FILLER_20_57
*415 FILLER_20_85
*416 FILLER_21_110
*417 FILLER_21_113
*418 FILLER_21_125
*419 FILLER_21_133
*420 FILLER_21_23
*421 FILLER_21_85
*422 FILLER_22_114
*423 FILLER_22_126
*424 FILLER_22_138
*425 FILLER_22_26
*426 FILLER_22_29
*427 FILLER_22_3
*428 FILLER_22_41
*429 FILLER_22_56
*430 FILLER_22_67
*431 FILLER_22_75
*432 FILLER_22_83
*433 FILLER_22_85
*434 FILLER_23_105
*435 FILLER_23_113
*436 FILLER_23_125
*437 FILLER_23_137
*438 FILLER_23_15
*439 FILLER_23_27
*440 FILLER_23_29
*441 FILLER_23_3
*442 FILLER_23_37
*443 FILLER_23_42
*444 FILLER_23_54
*445 FILLER_23_57
*446 FILLER_23_69
*447 FILLER_23_81
*448 FILLER_23_85
*449 FILLER_23_97
*450 FILLER_2_109
*451 FILLER_2_11
*452 FILLER_2_124
*453 FILLER_2_132
*454 FILLER_2_3
*455 FILLER_2_32
*456 FILLER_2_69
*457 FILLER_2_83
*458 FILLER_2_85
*459 FILLER_2_97
*460 FILLER_3_137
*461 FILLER_3_3
*462 FILLER_3_42
*463 FILLER_3_50
*464 FILLER_3_55
*465 FILLER_3_57
*466 FILLER_3_75
*467 FILLER_3_87
*468 FILLER_4_118
*469 FILLER_4_122
*470 FILLER_4_134
*471 FILLER_4_15
*472 FILLER_4_34
*473 FILLER_4_38
*474 FILLER_4_55
*475 FILLER_4_64
*476 FILLER_4_7
*477 FILLER_4_76
*478 FILLER_4_85
*479 FILLER_5_101
*480 FILLER_5_109
*481 FILLER_5_11
*482 FILLER_5_113
*483 FILLER_5_121
*484 FILLER_5_35
*485 FILLER_5_53
*486 FILLER_5_57
*487 FILLER_5_7
*488 FILLER_5_71
*489 FILLER_5_79
*490 FILLER_6_102
*491 FILLER_6_114
*492 FILLER_6_137
*493 FILLER_6_15
*494 FILLER_6_27
*495 FILLER_6_29
*496 FILLER_6_3
*497 FILLER_6_41
*498 FILLER_6_52
*499 FILLER_6_60
*500 FILLER_6_66
*501 FILLER_6_78
*502 FILLER_6_85
*503 FILLER_6_90
*504 FILLER_7_109
*505 FILLER_7_113
*506 FILLER_7_125
*507 FILLER_7_137
*508 FILLER_7_33
*509 FILLER_7_45
*510 FILLER_7_54
*511 FILLER_7_57
*512 FILLER_7_75
*513 FILLER_7_8
*514 FILLER_7_97
*515 FILLER_8_109
*516 FILLER_8_121
*517 FILLER_8_133
*518 FILLER_8_27
*519 FILLER_8_32
*520 FILLER_8_44
*521 FILLER_8_52
*522 FILLER_8_56
*523 FILLER_8_64
*524 FILLER_8_71
*525 FILLER_8_80
*526 FILLER_8_97
*527 FILLER_9_103
*528 FILLER_9_111
*529 FILLER_9_113
*530 FILLER_9_121
*531 FILLER_9_132
*532 FILLER_9_22
*533 FILLER_9_30
*534 FILLER_9_35
*535 FILLER_9_47
*536 FILLER_9_54
*537 FILLER_9_57
*538 FILLER_9_61
*539 PHY_EDGE_ROW_0_Left_24
*540 PHY_EDGE_ROW_0_Right_0
*541 PHY_EDGE_ROW_10_Left_34
*542 PHY_EDGE_ROW_10_Right_10
*543 PHY_EDGE_ROW_11_Left_35
*544 PHY_EDGE_ROW_11_Right_11
*545 PHY_EDGE_ROW_12_Left_36
*546 PHY_EDGE_ROW_12_Right_12
*547 PHY_EDGE_ROW_13_Left_37
*548 PHY_EDGE_ROW_13_Right_13
*549 PHY_EDGE_ROW_14_Left_38
*550 PHY_EDGE_ROW_14_Right_14
*551 PHY_EDGE_ROW_15_Left_39
*552 PHY_EDGE_ROW_15_Right_15
*553 PHY_EDGE_ROW_16_Left_40
*554 PHY_EDGE_ROW_16_Right_16
*555 PHY_EDGE_ROW_17_Left_41
*556 PHY_EDGE_ROW_17_Right_17
*557 PHY_EDGE_ROW_18_Left_42
*558 PHY_EDGE_ROW_18_Right_18
*559 PHY_EDGE_ROW_19_Left_43
*560 PHY_EDGE_ROW_19_Right_19
*561 PHY_EDGE_ROW_1_Left_25
*562 PHY_EDGE_ROW_1_Right_1
*563 PHY_EDGE_ROW_20_Left_44
*564 PHY_EDGE_ROW_20_Right_20
*565 PHY_EDGE_ROW_21_Left_45
*566 PHY_EDGE_ROW_21_Right_21
*567 PHY_EDGE_ROW_22_Left_46
*568 PHY_EDGE_ROW_22_Right_22
*569 PHY_EDGE_ROW_23_Left_47
*570 PHY_EDGE_ROW_23_Right_23
*571 PHY_EDGE_ROW_2_Left_26
*572 PHY_EDGE_ROW_2_Right_2
*573 PHY_EDGE_ROW_3_Left_27
*574 PHY_EDGE_ROW_3_Right_3
*575 PHY_EDGE_ROW_4_Left_28
*576 PHY_EDGE_ROW_4_Right_4
*577 PHY_EDGE_ROW_5_Left_29
*578 PHY_EDGE_ROW_5_Right_5
*579 PHY_EDGE_ROW_6_Left_30
*580 PHY_EDGE_ROW_6_Right_6
*581 PHY_EDGE_ROW_7_Left_31
*582 PHY_EDGE_ROW_7_Right_7
*583 PHY_EDGE_ROW_8_Left_32
*584 PHY_EDGE_ROW_8_Right_8
*585 PHY_EDGE_ROW_9_Left_33
*586 PHY_EDGE_ROW_9_Right_9
*587 TAP_TAPCELL_ROW_0_48
*588 TAP_TAPCELL_ROW_0_49
*589 TAP_TAPCELL_ROW_0_50
*590 TAP_TAPCELL_ROW_0_51
*591 TAP_TAPCELL_ROW_10_70
*592 TAP_TAPCELL_ROW_10_71
*593 TAP_TAPCELL_ROW_11_72
*594 TAP_TAPCELL_ROW_11_73
*595 TAP_TAPCELL_ROW_12_74
*596 TAP_TAPCELL_ROW_12_75
*597 TAP_TAPCELL_ROW_13_76
*598 TAP_TAPCELL_ROW_13_77
*599 TAP_TAPCELL_ROW_14_78
*600 TAP_TAPCELL_ROW_14_79
*601 TAP_TAPCELL_ROW_15_80
*602 TAP_TAPCELL_ROW_15_81
*603 TAP_TAPCELL_ROW_16_82
*604 TAP_TAPCELL_ROW_16_83
*605 TAP_TAPCELL_ROW_17_84
*606 TAP_TAPCELL_ROW_17_85
*607 TAP_TAPCELL_ROW_18_86
*608 TAP_TAPCELL_ROW_18_87
*609 TAP_TAPCELL_ROW_19_88
*610 TAP_TAPCELL_ROW_19_89
*611 TAP_TAPCELL_ROW_1_52
*612 TAP_TAPCELL_ROW_1_53
*613 TAP_TAPCELL_ROW_20_90
*614 TAP_TAPCELL_ROW_20_91
*615 TAP_TAPCELL_ROW_21_92
*616 TAP_TAPCELL_ROW_21_93
*617 TAP_TAPCELL_ROW_22_94
*618 TAP_TAPCELL_ROW_22_95
*619 TAP_TAPCELL_ROW_23_96
*620 TAP_TAPCELL_ROW_23_97
*621 TAP_TAPCELL_ROW_23_98
*622 TAP_TAPCELL_ROW_23_99
*623 TAP_TAPCELL_ROW_2_54
*624 TAP_TAPCELL_ROW_2_55
*625 TAP_TAPCELL_ROW_3_56
*626 TAP_TAPCELL_ROW_3_57
*627 TAP_TAPCELL_ROW_4_58
*628 TAP_TAPCELL_ROW_4_59
*629 TAP_TAPCELL_ROW_5_60
*630 TAP_TAPCELL_ROW_5_61
*631 TAP_TAPCELL_ROW_6_62
*632 TAP_TAPCELL_ROW_6_63
*633 TAP_TAPCELL_ROW_7_64
*634 TAP_TAPCELL_ROW_7_65
*635 TAP_TAPCELL_ROW_8_66
*636 TAP_TAPCELL_ROW_8_67
*637 TAP_TAPCELL_ROW_9_68
*638 TAP_TAPCELL_ROW_9_69
*639 _130_
*640 _131_
*641 _132_
*642 _133_
*643 _134_
*644 _135_
*645 _136_
*646 _137_
*647 _138_
*648 _139_
*649 _140_
*650 _141_
*651 _142_
*652 _143_
*653 _144_
*654 _145_
*655 _146_
*656 _147_
*657 _148_
*658 _149_
*659 _150_
*660 _151_
*661 _152_
*662 _153_
*663 _154_
*664 _155_
*665 _156_
*666 _157_
*667 _158_
*668 _159_
*669 _160_
*670 _161_
*671 _162_
*672 _163_
*673 _164_
*674 _165_
*675 _166_
*676 _167_
*677 _168_
*678 _169_
*679 _170_
*680 _171_
*681 _172_
*682 _173_
*683 _174_
*684 _175_
*685 _176_
*686 _177_
*687 _178_
*688 _179_
*689 _180_
*690 _181_
*691 _182_
*692 _183_
*693 _184_
*694 _185_
*695 _186_
*696 _187_
*697 _188_
*698 _189_
*699 _190_
*700 _191_
*701 _192_
*702 _193_
*703 _194_
*704 _195_
*705 _196_
*706 _197_
*707 _198_
*708 _199_
*709 _200_
*710 _201_
*711 _202_
*712 _203_
*713 _204_
*714 _205_
*715 _206_
*716 _207_
*717 _208_
*718 _209_
*719 _210_
*720 _211_
*721 _212_
*722 _213_
*723 _214_
*724 _215_
*725 _216_
*726 _217_
*727 _218_
*728 _219_
*729 _220_
*730 _221_
*731 _222_
*732 _223_
*733 _224_
*734 _225_
*735 _226_
*736 _227_
*737 _228_
*738 _229_
*739 _230_
*740 _231_
*741 _232_
*742 _233_
*743 _234_
*744 _235_
*745 _236_
*746 _237_
*747 _238_
*748 _239_
*749 _240_
*750 _241_
*751 _242_
*752 _243_
*753 _244_
*754 _245_
*755 _246_
*756 _247_
*757 _248_
*758 _249_
*759 _250_
*760 _251_
*761 _252_
*762 _253_
*763 _254_
*764 _255_
*765 _256_
*766 _257_
*767 _258_
*768 _259_
*769 _260_
*770 _261_
*771 _262_
*772 _263_
*773 _264_
*774 _265_
*775 _266_
*776 _267_
*777 _268_
*778 _269_
*779 _270_
*780 _271_
*781 _272_
*782 _273_
*783 _274_
*784 _275_
*785 _276_
*786 _277_
*787 _278_
*788 _279_
*789 _280_
*790 _281_
*791 _282_
*792 _283_
*793 _284_
*794 clkbuf_0_clk
*795 clkbuf_1_0__f_clk
*796 clkbuf_1_1__f_clk
*797 clkload0
*798 fanout26
*799 fanout27
*800 fanout28
*801 fanout29
*802 fanout30
*803 fanout31
*804 fanout32
*805 fanout33
*806 fanout34
*807 fanout35
*808 fanout36
*809 fanout37
*810 fanout38
*811 fanout39
*812 fanout40
*813 fanout41
*814 fanout42
*815 fanout43
*816 fanout44
*817 fanout45
*818 fanout46
*819 fanout47
*820 fanout48
*821 fanout49
*822 fanout50
*823 fanout51
*824 fanout52
*825 fanout53
*826 fanout54
*827 fanout55
*828 fanout56
*829 fanout57
*830 fanout58
*831 fanout59
*832 fanout60
*833 fanout61
*834 fanout62
*835 fanout63
*836 fanout64
*837 fanout65
*838 fanout66
*839 fanout67
*840 fanout68
*841 hold1
*842 hold10
*843 hold11
*844 hold12
*845 hold13
*846 hold14
*847 hold15
*848 hold16
*849 hold2
*850 hold3
*851 hold4
*852 hold5
*853 hold6
*854 hold7
*855 hold8
*856 hold9
*857 input1
*858 input2
*859 input3
*860 input4
*861 input5
*862 input6
*863 input7
*864 input8
*865 input9
*866 output10
*867 output11
*868 output12
*869 output13
*870 output14
*871 output15
*872 output16
*873 output17
*874 output18
*875 output19
*876 output20
*877 output21
*878 output22
*879 output23
*880 output24
*881 output25

*PORTS
clk I
instruction[0] I
instruction[1] I
instruction[2] I
instruction[3] I
instruction[4] I
instruction[5] I
instruction[6] I
instruction[7] I
out_port[0] O
out_port[1] O
out_port[2] O
out_port[3] O
out_port[4] O
out_port[5] O
out_port[6] O
out_port[7] O
pc[0] O
pc[1] O
pc[2] O
pc[3] O
pc[4] O
pc[5] O
pc[6] O
pc[7] O
reset I

*D_NET *3 0.00850417
*CONN
*P clk I
*I *255:DIODE I *D sky130_fd_sc_hd__diode_2
*I *794:A I *D sky130_fd_sc_hd__clkbuf_16
*CAP
1 clk 0.00308215
2 *255:DIODE 0
3 *794:A 6.2558e-05
4 *3:13 0.00314471
5 *794:A *687:B1 8.62876e-05
6 *794:A *795:A 3.50723e-05
7 *794:A *99:8 4.334e-05
8 *794:A *203:25 5.3304e-05
9 *3:13 pc[6] 8.97484e-05
10 *3:13 *679:B 0.000154026
11 *3:13 *687:B1 0.000141879
12 *3:13 *705:B 0.000257104
13 *3:13 *717:A 5.76076e-05
14 *3:13 *28:11 8.06147e-05
15 *3:13 *66:27 0.000169683
16 *3:13 *99:8 3.72639e-05
17 *3:13 *100:10 1.12487e-05
18 *3:13 *105:8 0.00014411
19 *3:13 *107:10 0
20 *3:13 *107:31 0
21 *3:13 *133:12 0
22 *3:13 *217:14 0.000853458
*RES
1 clk *3:13 33.4856 
2 *3:13 *794:A 39.8229 
3 *3:13 *255:DIODE 38 
*END

*D_NET *4 0.00104593
*CONN
*P instruction[0] I
*I *857:A I *D sky130_fd_sc_hd__clkbuf_1
*I *256:DIODE I *D sky130_fd_sc_hd__diode_2
*CAP
1 instruction[0] 0.000375324
2 *857:A 0.000106786
3 *256:DIODE 0
4 *4:7 0.00048211
5 *857:A *859:A 0
6 *857:A *192:8 8.17134e-05
7 *4:7 *6:7 0
*RES
1 instruction[0] *4:7 22.9957 
2 *4:7 *256:DIODE 23 
3 *4:7 *857:A 25.4236 
*END

*D_NET *5 0.001021
*CONN
*P instruction[1] I
*I *858:A I *D sky130_fd_sc_hd__clkbuf_1
*I *257:DIODE I *D sky130_fd_sc_hd__diode_2
*CAP
1 instruction[1] 0.000379407
2 *858:A 0.000119579
3 *257:DIODE 0
4 *5:7 0.000498986
5 *858:A *859:A 0
6 *858:A *181:8 2.30292e-05
7 *5:7 *6:7 0
*RES
1 instruction[1] *5:7 22.9957 
2 *5:7 *257:DIODE 23 
3 *5:7 *858:A 25.4236 
*END

*D_NET *6 0.00090565
*CONN
*P instruction[2] I
*I *859:A I *D sky130_fd_sc_hd__buf_1
*I *258:DIODE I *D sky130_fd_sc_hd__diode_2
*CAP
1 instruction[2] 0.00037492
2 *859:A 7.79049e-05
3 *258:DIODE 0
4 *6:7 0.000452825
5 *857:A *859:A 0
6 *858:A *859:A 0
7 *4:7 *6:7 0
8 *5:7 *6:7 0
*RES
1 instruction[2] *6:7 22.9957 
2 *6:7 *258:DIODE 23 
3 *6:7 *859:A 24.4707 
*END

*D_NET *7 0.000931384
*CONN
*P instruction[3] I
*I *259:DIODE I *D sky130_fd_sc_hd__diode_2
*I *860:A I *D sky130_fd_sc_hd__buf_1
*CAP
1 instruction[3] 0.000268763
2 *259:DIODE 0.000100373
3 *860:A 0
4 *7:11 0.000369135
5 *7:11 pc[4] 0
6 *7:11 *8:13 6.23473e-05
7 *7:11 *11:13 6.91028e-05
8 *7:11 *203:8 6.16635e-05
*RES
1 instruction[3] *7:11 26.1918 
2 *7:11 *860:A 23 
3 *7:11 *259:DIODE 24.5743 
*END

*D_NET *8 0.00115939
*CONN
*P instruction[4] I
*I *260:DIODE I *D sky130_fd_sc_hd__diode_2
*I *861:A I *D sky130_fd_sc_hd__buf_1
*CAP
1 instruction[4] 0.000345877
2 *260:DIODE 3.90313e-05
3 *861:A 2.0995e-05
4 *8:13 0.000405903
5 *260:DIODE *878:A 8.1796e-05
6 *260:DIODE *214:12 5.67058e-05
7 *861:A *878:A 1.14154e-05
8 *8:13 pc[4] 0.000103032
9 *8:13 *878:A 3.22879e-05
10 *7:11 *8:13 6.23473e-05
*RES
1 instruction[4] *8:13 28.3193 
2 *8:13 *861:A 23.4971 
3 *8:13 *260:DIODE 24.5743 
*END

*D_NET *9 0.000781708
*CONN
*P instruction[5] I
*I *261:DIODE I *D sky130_fd_sc_hd__diode_2
*I *862:A I *D sky130_fd_sc_hd__clkbuf_1
*CAP
1 instruction[5] 0.000233801
2 *261:DIODE 7.83106e-05
3 *862:A 0
4 *9:11 0.000312111
5 *261:DIODE *225:8 3.22879e-05
6 *9:11 pc[3] 5.99691e-05
7 *9:11 *841:A 0
8 *9:11 *11:13 6.52282e-05
*RES
1 instruction[5] *9:11 25.1354 
2 *9:11 *862:A 23 
3 *9:11 *261:DIODE 24.5743 
*END

*D_NET *10 0.000708254
*CONN
*P instruction[6] I
*I *262:DIODE I *D sky130_fd_sc_hd__diode_2
*I *863:A I *D sky130_fd_sc_hd__clkbuf_1
*CAP
1 instruction[6] 0.000244561
2 *262:DIODE 7.14448e-05
3 *863:A 0
4 *10:13 0.000316006
5 *262:DIODE *236:6 2.30292e-05
6 *10:13 pc[1] 0
7 *10:13 pc[2] 5.32136e-05
8 *10:13 pc[3] 0
9 *10:13 *21:14 0
*RES
1 instruction[6] *10:13 24.9666 
2 *10:13 *863:A 23 
3 *10:13 *262:DIODE 24.5743 
*END

*D_NET *11 0.000703697
*CONN
*P instruction[7] I
*I *263:DIODE I *D sky130_fd_sc_hd__diode_2
*I *864:A I *D sky130_fd_sc_hd__clkbuf_1
*CAP
1 instruction[7] 0.000188114
2 *263:DIODE 6.82162e-05
3 *864:A 0
4 *11:13 0.00025633
5 *263:DIODE *203:12 5.67058e-05
6 *7:11 *11:13 6.91028e-05
7 *9:11 *11:13 6.52282e-05
*RES
1 instruction[7] *11:13 24.6145 
2 *11:13 *864:A 23 
3 *11:13 *263:DIODE 24.5743 
*END

*D_NET *12 0.000935434
*CONN
*P out_port[0] O
*I *866:X O *D sky130_fd_sc_hd__buf_2
*CAP
1 out_port[0] 0.000467717
2 *866:X 0.000467717
*RES
1 *866:X out_port[0] 47.0936 
*END

*D_NET *13 0.000666889
*CONN
*P out_port[1] O
*I *867:X O *D sky130_fd_sc_hd__buf_2
*CAP
1 out_port[1] 0.000289756
2 *867:X 0.000289756
3 out_port[1] out_port[2] 8.73764e-05
4 out_port[1] *202:34 0
*RES
1 *867:X out_port[1] 48.5734 
*END

*D_NET *14 0.000540824
*CONN
*P out_port[2] O
*I *868:X O *D sky130_fd_sc_hd__buf_2
*CAP
1 out_port[2] 0.000226724
2 *868:X 0.000226724
3 out_port[1] out_port[2] 8.73764e-05
*RES
1 *868:X out_port[2] 47.5169 
*END

*D_NET *15 0.000584602
*CONN
*P out_port[3] O
*I *869:X O *D sky130_fd_sc_hd__buf_2
*CAP
1 out_port[3] 0.000287373
2 *869:X 0.000287373
3 out_port[3] *869:A 9.85586e-06
*RES
1 *869:X out_port[3] 47.2507 
*END

*D_NET *16 0.00180118
*CONN
*P out_port[4] O
*I *870:X O *D sky130_fd_sc_hd__buf_2
*CAP
1 out_port[4] 0.000141267
2 *870:X 0.000520007
3 *16:10 0.000661274
4 out_port[4] out_port[5] 7.1481e-05
5 *16:10 *761:B 2.93747e-05
6 *16:10 *846:A 2.93845e-05
7 *16:10 *870:A 0.000128391
8 *16:10 *17:12 0.000130963
9 *16:10 *176:8 8.90383e-05
*RES
1 *870:X *16:10 48.6368 
2 *16:10 out_port[4] 8.672 
*END

*D_NET *17 0.00103543
*CONN
*P out_port[5] O
*I *871:X O *D sky130_fd_sc_hd__buf_2
*CAP
1 out_port[5] 0.000185232
2 *871:X 0.00017055
3 *17:12 0.000355782
4 *17:12 *871:A 8.16459e-05
5 *17:12 *176:8 3.9779e-05
6 out_port[4] out_port[5] 7.1481e-05
7 *16:10 *17:12 0.000130963
*RES
1 *871:X *17:12 49.7596 
2 *17:12 out_port[5] 0.757867 
*END

*D_NET *18 0.000765697
*CONN
*P out_port[6] O
*I *872:X O *D sky130_fd_sc_hd__buf_2
*CAP
1 out_port[6] 0.00036318
2 *872:X 0.00036318
3 out_port[6] *872:A 3.93368e-05
*RES
1 *872:X out_port[6] 49.4611 
*END

*D_NET *19 0.00120695
*CONN
*P out_port[7] O
*I *873:X O *D sky130_fd_sc_hd__buf_2
*CAP
1 out_port[7] 0.000574954
2 *873:X 0.000574954
3 out_port[7] *873:A 5.70419e-05
*RES
1 *873:X out_port[7] 49.3721 
*END

*D_NET *20 0.000815288
*CONN
*P pc[0] O
*I *874:X O *D sky130_fd_sc_hd__buf_2
*CAP
1 pc[0] 9.93892e-05
2 *874:X 0.00029381
3 *20:10 0.000393199
4 pc[0] pc[1] 2.43221e-05
5 pc[0] *21:14 4.56684e-06
6 *20:10 *21:14 0
7 *20:10 *180:12 0
*RES
1 *874:X *20:10 42.5054 
2 *20:10 pc[0] 8.4816 
*END

*D_NET *21 0.000761356
*CONN
*P pc[1] O
*I *875:X O *D sky130_fd_sc_hd__buf_2
*CAP
1 pc[1] 8.30677e-05
2 *875:X 0.000283166
3 *21:14 0.000366233
4 pc[0] pc[1] 2.43221e-05
5 pc[0] *21:14 4.56684e-06
6 *10:13 pc[1] 0
7 *10:13 *21:14 0
8 *20:10 *21:14 0
*RES
1 *875:X *21:14 49.9 
2 *21:14 pc[1] 0.382667 
*END

*D_NET *22 0.000742714
*CONN
*P pc[2] O
*I *876:X O *D sky130_fd_sc_hd__buf_2
*CAP
1 pc[2] 0.000319333
2 *876:X 0.000319333
3 pc[2] pc[3] 5.08354e-05
4 pc[2] *182:16 0
5 *10:13 pc[2] 5.32136e-05
*RES
1 *876:X pc[2] 49.9285 
*END

*D_NET *23 0.000632687
*CONN
*P pc[3] O
*I *877:X O *D sky130_fd_sc_hd__buf_2
*CAP
1 pc[3] 0.000260941
2 *877:X 0.000260941
3 pc[2] pc[3] 5.08354e-05
4 *9:11 pc[3] 5.99691e-05
5 *10:13 pc[3] 0
*RES
1 *877:X pc[3] 48.4815 
*END

*D_NET *24 0.00071664
*CONN
*P pc[4] O
*I *878:X O *D sky130_fd_sc_hd__buf_2
*CAP
1 pc[4] 0.00029118
2 *878:X 0.00029118
3 pc[4] pc[5] 1.5289e-05
4 pc[4] *25:14 1.59585e-05
5 pc[4] *28:11 0
6 *7:11 pc[4] 0
7 *8:13 pc[4] 0.000103032
*RES
1 *878:X pc[4] 48.7952 
*END

*D_NET *25 0.000762608
*CONN
*P pc[5] O
*I *879:X O *D sky130_fd_sc_hd__buf_2
*CAP
1 pc[5] 7.65184e-05
2 *879:X 0.000278539
3 *25:14 0.000355058
4 pc[5] *28:11 2.12457e-05
5 pc[4] pc[5] 1.5289e-05
6 pc[4] *25:14 1.59585e-05
*RES
1 *879:X *25:14 49.9 
2 *25:14 pc[5] 0.382667 
*END

*D_NET *26 0.000518101
*CONN
*P pc[6] O
*I *880:X O *D sky130_fd_sc_hd__buf_2
*CAP
1 pc[6] 0.000211382
2 *880:X 0.000211382
3 pc[6] *744:A 5.58873e-06
4 *3:13 pc[6] 8.97484e-05
*RES
1 *880:X pc[6] 47.1648 
*END

*D_NET *27 0.000942157
*CONN
*P pc[7] O
*I *881:X O *D sky130_fd_sc_hd__buf_2
*CAP
1 pc[7] 0.000471078
2 *881:X 0.000471078
*RES
1 *881:X pc[7] 48.2743 
*END

*D_NET *28 0.00104369
*CONN
*P reset I
*I *264:DIODE I *D sky130_fd_sc_hd__diode_2
*I *865:A I *D sky130_fd_sc_hd__clkbuf_1
*CAP
1 reset 0.000293981
2 *264:DIODE 9.11722e-05
3 *865:A 0
4 *28:11 0.000385153
5 *264:DIODE *168:120 5.50106e-05
6 *264:DIODE *253:8 5.70419e-05
7 *28:11 *168:120 5.94746e-05
8 *28:11 *168:130 0
9 pc[4] *28:11 0
10 pc[5] *28:11 2.12457e-05
11 *3:13 *28:11 8.06147e-05
*RES
1 reset *28:11 26.5439 
2 *28:11 *865:A 23 
3 *28:11 *264:DIODE 25.0507 
*END

*D_NET *29 0.000427951
*CONN
*I *769:D I *D sky130_fd_sc_hd__dfxtp_1
*I *715:Y O *D sky130_fd_sc_hd__nor2_1
*CAP
1 *769:D 0.000136027
2 *715:Y 0.000136027
3 *769:D *715:B 2.65879e-05
4 *769:D *769:CLK 0.000129308
*RES
1 *715:Y *769:D 48.843 
*END

*D_NET *30 0.00137805
*CONN
*I *770:D I *D sky130_fd_sc_hd__dfxtp_1
*I *727:X O *D sky130_fd_sc_hd__o221a_1
*CAP
1 *770:D 0.000133491
2 *727:X 0.000228801
3 *30:10 0.000362292
4 *770:D *778:CLK 7.88828e-05
5 *770:D *130:10 2.65879e-05
6 *30:10 *727:A1 5.50049e-05
7 *30:10 *137:14 2.65505e-05
8 *30:10 *170:12 0
9 *30:10 *179:16 0.000108681
10 *30:10 *180:38 9.58714e-05
11 *30:10 *213:39 0
12 *30:10 *237:10 0.00026189
*RES
1 *727:X *30:10 43.1164 
2 *30:10 *770:D 40.843 
*END

*D_NET *31 0.000817866
*CONN
*I *771:D I *D sky130_fd_sc_hd__dfxtp_1
*I *730:Y O *D sky130_fd_sc_hd__a211oi_1
*CAP
1 *771:D 9.68871e-05
2 *730:Y 8.67167e-05
3 *31:8 0.000183604
4 *771:D *179:12 5.51254e-05
5 *771:D *180:19 0.000317508
6 *31:8 *874:A 4.23714e-05
7 *31:8 *180:12 3.56537e-05
*RES
1 *730:Y *31:8 39.9057 
2 *31:8 *771:D 41.5266 
*END

*D_NET *32 0.000327613
*CONN
*I *772:D I *D sky130_fd_sc_hd__dfxtp_1
*I *733:X O *D sky130_fd_sc_hd__o311a_1
*CAP
1 *772:D 2.86595e-05
2 *733:X 0.000105518
3 *32:8 0.000134178
4 *772:D *182:8 5.92579e-05
5 *32:8 *143:31 0
*RES
1 *733:X *32:8 39.5536 
2 *32:8 *772:D 38.668 
*END

*D_NET *33 0.000327104
*CONN
*I *773:D I *D sky130_fd_sc_hd__dfxtp_1
*I *736:Y O *D sky130_fd_sc_hd__a211oi_1
*CAP
1 *773:D 8.77079e-06
2 *736:Y 0.000103467
3 *33:8 0.000112238
4 *773:D *168:74 1.74843e-05
5 *33:8 *841:A 0
6 *33:8 *147:10 8.51432e-05
7 *33:8 *183:14 0
*RES
1 *736:Y *33:8 40.2579 
2 *33:8 *773:D 38.1916 
*END

*D_NET *34 0.00043757
*CONN
*I *774:D I *D sky130_fd_sc_hd__dfxtp_1
*I *739:X O *D sky130_fd_sc_hd__o311a_1
*CAP
1 *774:D 3.04934e-05
2 *739:X 0.000124869
3 *34:8 0.000155363
4 *774:D *168:105 5.92579e-05
5 *34:8 *150:10 0
6 *34:8 *151:10 1.14452e-05
7 *34:8 *168:120 5.61414e-05
*RES
1 *739:X *34:8 40.61 
2 *34:8 *774:D 38.668 
*END

*D_NET *35 0.000375315
*CONN
*I *775:D I *D sky130_fd_sc_hd__dfxtp_1
*I *743:Y O *D sky130_fd_sc_hd__nor2_1
*CAP
1 *775:D 1.26909e-05
2 *743:Y 8.49341e-05
3 *35:8 9.7625e-05
4 *775:D *253:8 8.15899e-06
5 *35:8 *151:25 0.000171906
6 *35:8 *185:10 0
*RES
1 *743:Y *35:8 40.2579 
2 *35:8 *775:D 38.1916 
*END

*D_NET *36 0.000612352
*CONN
*I *776:D I *D sky130_fd_sc_hd__dfxtp_1
*I *746:Y O *D sky130_fd_sc_hd__nor2_1
*CAP
1 *776:D 4.24845e-05
2 *746:Y 0.000220296
3 *36:10 0.000262781
4 *776:D *168:130 3.68467e-05
5 *36:10 *745:B1 1.76557e-05
6 *36:10 *746:B 3.22879e-05
7 *36:10 *151:33 0
8 *36:10 *154:21 0
*RES
1 *746:Y *36:10 41.48 
2 *36:10 *776:D 38.9943 
*END

*D_NET *37 0.00150316
*CONN
*I *777:D I *D sky130_fd_sc_hd__dfxtp_1
*I *748:X O *D sky130_fd_sc_hd__o211a_1
*CAP
1 *777:D 0.000227833
2 *748:X 0.000162981
3 *37:10 0.000390814
4 *777:D *793:CLK 0.000497149
5 *37:10 *745:B1 0
6 *37:10 *747:A1 5.69373e-05
7 *37:10 *881:A 8.11552e-05
8 *37:10 *187:10 8.62876e-05
*RES
1 *748:X *37:10 41.3557 
2 *37:10 *777:D 43.4323 
*END

*D_NET *38 0.000285497
*CONN
*I *778:D I *D sky130_fd_sc_hd__dfxtp_1
*I *751:X O *D sky130_fd_sc_hd__and2_1
*CAP
1 *778:D 1.66233e-05
2 *751:X 6.90834e-05
3 *38:8 8.57068e-05
4 *38:8 *170:12 0.000114083
*RES
1 *751:X *38:8 39.5536 
2 *38:8 *778:D 38.1916 
*END

*D_NET *39 0.000240209
*CONN
*I *779:D I *D sky130_fd_sc_hd__dfxtp_1
*I *753:X O *D sky130_fd_sc_hd__and2_1
*CAP
1 *779:D 0.000103961
2 *753:X 0.000103961
3 *779:D *779:CLK 3.22879e-05
*RES
1 *753:X *779:D 47.8902 
*END

*D_NET *40 0.000291627
*CONN
*I *780:D I *D sky130_fd_sc_hd__dfxtp_1
*I *755:X O *D sky130_fd_sc_hd__and2_1
*CAP
1 *780:D 4.29071e-05
2 *755:X 5.60264e-05
3 *40:8 9.89335e-05
4 *40:8 *754:A1 3.5664e-05
5 *40:8 *55:8 5.80963e-05
*RES
1 *755:X *40:8 39.5536 
2 *40:8 *780:D 38.668 
*END

*D_NET *41 0.000402257
*CONN
*I *781:D I *D sky130_fd_sc_hd__dfxtp_1
*I *757:X O *D sky130_fd_sc_hd__and2_1
*CAP
1 *781:D 1.31802e-05
2 *757:X 0.000159877
3 *41:10 0.000173058
4 *41:10 *56:8 5.61414e-05
5 *41:10 *245:8 0
*RES
1 *757:X *41:10 40.8793 
2 *41:10 *781:D 38.1916 
*END

*D_NET *42 0.000685641
*CONN
*I *782:D I *D sky130_fd_sc_hd__dfxtp_1
*I *759:X O *D sky130_fd_sc_hd__o211a_1
*CAP
1 *782:D 1.36537e-05
2 *759:X 0.000203348
3 *42:10 0.000217002
4 *42:10 *759:A1 0.000182826
5 *42:10 *169:29 3.56433e-05
6 *42:10 *238:8 3.31683e-05
*RES
1 *759:X *42:10 41.6043 
2 *42:10 *782:D 38.1916 
*END

*D_NET *43 0.000775984
*CONN
*I *783:D I *D sky130_fd_sc_hd__dfxtp_1
*I *761:X O *D sky130_fd_sc_hd__and2_1
*CAP
1 *783:D 8.77079e-06
2 *761:X 0.000364494
3 *43:8 0.000373265
4 *783:D *759:A1 1.74843e-05
5 *43:8 *759:A2 0
6 *43:8 *58:8 0
7 *43:8 *169:29 1.19692e-05
8 *43:8 *200:10 0
*RES
1 *761:X *43:8 43.075 
2 *43:8 *783:D 38.1916 
*END

*D_NET *44 0.000364961
*CONN
*I *784:D I *D sky130_fd_sc_hd__dfxtp_1
*I *763:X O *D sky130_fd_sc_hd__and2_1
*CAP
1 *784:D 4.83017e-05
2 *763:X 4.83017e-05
3 *784:D *763:B 9.84794e-05
4 *784:D *165:10 0.000169878
*RES
1 *763:X *784:D 47.8902 
*END

*D_NET *45 0.000385997
*CONN
*I *785:D I *D sky130_fd_sc_hd__dfxtp_1
*I *765:X O *D sky130_fd_sc_hd__and2_1
*CAP
1 *785:D 2.05183e-05
2 *765:X 2.05183e-05
3 *785:D *166:21 0.00017248
4 *785:D *216:23 0.00017248
*RES
1 *765:X *785:D 47.8902 
*END

*D_NET *46 0.000479818
*CONN
*I *786:D I *D sky130_fd_sc_hd__dfxtp_1
*I *645:Y O *D sky130_fd_sc_hd__nor2_1
*CAP
1 *786:D 7.0313e-06
2 *645:Y 0.000146327
3 *46:10 0.000153358
4 *786:D *234:8 9.49623e-06
5 *46:10 *168:14 0.000163606
6 *46:10 *234:23 0
*RES
1 *645:Y *46:10 40.8793 
2 *46:10 *786:D 38.1916 
*END

*D_NET *47 0.000931815
*CONN
*I *787:D I *D sky130_fd_sc_hd__dfxtp_1
*I *656:X O *D sky130_fd_sc_hd__o211a_1
*CAP
1 *787:D 8.20156e-06
2 *656:X 0.000242916
3 *47:12 0.000251118
4 *787:D *48:10 1.64354e-05
5 *47:12 *818:A 2.02872e-05
6 *47:12 *48:10 8.62876e-05
7 *47:12 *65:45 9.84851e-05
8 *47:12 *169:47 9.84851e-05
9 *47:12 *169:55 5.45887e-05
10 *47:12 *210:8 5.50106e-05
*RES
1 *656:X *47:12 43.0543 
2 *47:12 *787:D 38.1916 
*END

*D_NET *48 0.000781603
*CONN
*I *788:D I *D sky130_fd_sc_hd__dfxtp_1
*I *666:X O *D sky130_fd_sc_hd__and2_1
*CAP
1 *788:D 1.26271e-05
2 *666:X 0.000301488
3 *48:10 0.000314115
4 *788:D *169:47 1.64354e-05
5 *48:10 *780:CLK 0
6 *48:10 *169:55 3.42149e-05
7 *787:D *48:10 1.64354e-05
8 *47:12 *48:10 8.62876e-05
*RES
1 *666:X *48:10 42.0807 
2 *48:10 *788:D 38.1916 
*END

*D_NET *49 0.000573262
*CONN
*I *789:D I *D sky130_fd_sc_hd__dfxtp_1
*I *677:Y O *D sky130_fd_sc_hd__a21oi_1
*CAP
1 *789:D 0
2 *677:Y 0.000191931
3 *49:12 0.000191931
4 *49:12 *677:A2 0
5 *49:12 *169:35 0.000127311
6 *49:12 *221:73 6.20905e-05
*RES
1 *677:Y *49:12 27.3345 
2 *49:12 *789:D 23 
*END

*D_NET *50 0.000521582
*CONN
*I *790:D I *D sky130_fd_sc_hd__dfxtp_1
*I *686:X O *D sky130_fd_sc_hd__and2_1
*CAP
1 *790:D 5.95339e-05
2 *686:X 0.000126837
3 *50:8 0.000186371
4 *790:D *220:42 0.00014884
5 *50:8 *686:A 0
*RES
1 *686:X *50:8 40.2579 
2 *50:8 *790:D 39.6209 
*END

*D_NET *51 0.000878191
*CONN
*I *791:D I *D sky130_fd_sc_hd__dfxtp_1
*I *694:Y O *D sky130_fd_sc_hd__nor2_1
*CAP
1 *791:D 0
2 *694:Y 0.000181416
3 *51:6 0.000181416
4 *51:6 *694:B 3.22879e-05
5 *51:6 *760:S 9.4636e-06
6 *51:6 *791:CLK 5.3304e-05
7 *51:6 *164:14 0.000420304
*RES