*SPEF "ieee 1481-1999"
*DESIGN "counter"
*DATE "19:54:21 Friday April 03, 2026"
*VENDOR "The OpenROAD Project"
*PROGRAM "OpenROAD"
*VERSION "edf00dff99f6c40d67a30c0e22a8191c5d2ed9d6"
*DESIGN_FLOW "NAME_SCOPE LOCAL" "PIN_CAP NONE"
*DIVIDER /
*DELIMITER :
*BUS_DELIMITER []
*T_UNIT 1 NS
*C_UNIT 1 PF
*R_UNIT 1 OHM
*L_UNIT 1 HENRY

*NAME_MAP
*3 clk
*4 out[0]
*5 out[1]
*6 out[2]
*7 out[3]
*8 rst
*9 _00_
*10 _01_
*11 _02_
*12 _03_
*13 _04_
*14 _05_
*15 _06_
*16 _07_
*17 _08_
*18 _09_
*19 clknet_0_clk
*20 clknet_1_0__leaf_clk
*21 clknet_1_1__leaf_clk
*22 net1
*23 net2
*24 net3
*25 net4
*26 net5
*27 net6
*28 net7
*29 net8
*30 net9
*31 FILLER_0_15
*32 FILLER_0_23
*33 FILLER_0_3
*34 FILLER_0_36
*35 FILLER_0_42
*36 FILLER_0_54
*37 FILLER_0_57
*38 FILLER_0_61
*39 FILLER_1_3
*40 FILLER_1_57
*41 FILLER_1_61
*42 FILLER_2_26
*43 FILLER_2_34
*44 FILLER_2_43
*45 FILLER_2_55
*46 FILLER_2_61
*47 FILLER_3_3
*48 FILLER_3_57
*49 FILLER_3_61
*50 FILLER_4_23
*51 FILLER_4_27
*52 FILLER_4_49
*53 FILLER_4_61
*54 FILLER_5_27
*55 FILLER_5_3
*56 FILLER_5_38
*57 FILLER_5_50
*58 FILLER_5_57
*59 FILLER_6_14
*60 FILLER_6_26
*61 FILLER_6_29
*62 FILLER_6_41
*63 FILLER_6_53
*64 FILLER_6_61
*65 FILLER_6_7
*66 FILLER_7_15
*67 FILLER_7_27
*68 FILLER_7_3
*69 FILLER_7_39
*70 FILLER_7_51
*71 FILLER_7_55
*72 FILLER_7_57
*73 FILLER_7_61
*74 FILLER_8_15
*75 FILLER_8_27
*76 FILLER_8_29
*77 FILLER_8_3
*78 FILLER_8_41
*79 FILLER_8_53
*80 FILLER_8_61
*81 FILLER_9_15
*82 FILLER_9_27
*83 FILLER_9_29
*84 FILLER_9_3
*85 FILLER_9_41
*86 FILLER_9_53
*87 FILLER_9_57
*88 FILLER_9_61
*89 PHY_EDGE_ROW_0_Left_10
*90 PHY_EDGE_ROW_0_Right_0
*91 PHY_EDGE_ROW_1_Left_11
*92 PHY_EDGE_ROW_1_Right_1
*93 PHY_EDGE_ROW_2_Left_12
*94 PHY_EDGE_ROW_2_Right_2
*95 PHY_EDGE_ROW_3_Left_13
*96 PHY_EDGE_ROW_3_Right_3
*97 PHY_EDGE_ROW_4_Left_14
*98 PHY_EDGE_ROW_4_Right_4
*99 PHY_EDGE_ROW_5_Left_15
*100 PHY_EDGE_ROW_5_Right_5
*101 PHY_EDGE_ROW_6_Left_16
*102 PHY_EDGE_ROW_6_Right_6
*103 PHY_EDGE_ROW_7_Left_17
*104 PHY_EDGE_ROW_7_Right_7
*105 PHY_EDGE_ROW_8_Left_18
*106 PHY_EDGE_ROW_8_Right_8
*107 PHY_EDGE_ROW_9_Left_19
*108 PHY_EDGE_ROW_9_Right_9
*109 TAP_TAPCELL_ROW_0_20
*110 TAP_TAPCELL_ROW_0_21
*111 TAP_TAPCELL_ROW_1_22
*112 TAP_TAPCELL_ROW_2_23
*113 TAP_TAPCELL_ROW_3_24
*114 TAP_TAPCELL_ROW_4_25
*115 TAP_TAPCELL_ROW_5_26
*116 TAP_TAPCELL_ROW_6_27
*117 TAP_TAPCELL_ROW_7_28
*118 TAP_TAPCELL_ROW_8_29
*119 TAP_TAPCELL_ROW_9_30
*120 TAP_TAPCELL_ROW_9_31
*121 _10_
*122 _11_
*123 _12_
*124 _13_
*125 _14_
*126 _15_
*127 _16_
*128 _17_
*129 _18_
*130 _19_
*131 _20_
*132 _21_
*133 _22_
*134 _23_
*135 clkbuf_0_clk
*136 clkbuf_1_0__f_clk
*137 clkbuf_1_1__f_clk
*138 hold1
*139 hold2
*140 hold3
*141 hold4
*142 input1
*143 output2
*144 output3
*145 output4
*146 output5

*PORTS
clk I
out[0] O
out[1] O
out[2] O
out[3] O
rst I

*D_NET *3 0.00224665
*CONN
*P clk I
*I *135:A I *D sky130_fd_sc_hd__clkbuf_16
*CAP
1 clk 0.00072962
2 *135:A 0.00072962
3 *135:A out[0] 0.000194823
4 *135:A *124:A1 0.000384312
5 *135:A *124:B1 5.52238e-05
6 *135:A *131:CLK 0.000153054
7 *135:A *142:A 0
8 *135:A *22:14 0
*RES
1 clk *135:A 29.6936 
*END

*D_NET *4 0.000942091
*CONN
*P out[0] O
*I *143:X O *D sky130_fd_sc_hd__buf_2
*CAP
1 out[0] 0.000357665
2 *143:X 0.000357665
3 out[0] *122:A 0
4 out[0] *142:A 3.19385e-05
5 out[0] *22:14 0
6 *135:A out[0] 0.000194823
*RES
1 *143:X out[0] 21.2306 
*END

*D_NET *5 0.000518072
*CONN
*P out[1] O
*I *144:X O *D sky130_fd_sc_hd__buf_2
*CAP
1 out[1] 0.000259036
2 *144:X 0.000259036
*RES
1 *144:X out[1] 18.73 
*END

*D_NET *6 0.00102122
*CONN
*P out[2] O
*I *145:X O *D sky130_fd_sc_hd__buf_2
*CAP
1 out[2] 0.000507912
2 *145:X 0.000507912
3 out[2] out[3] 0
4 out[2] *134:D 5.39166e-06
*RES
1 *145:X out[2] 22.4607 
*END

*D_NET *7 0.000890926
*CONN
*P out[3] O
*I *146:X O *D sky130_fd_sc_hd__buf_2
*CAP
1 out[3] 0.0004271
2 *146:X 0.0004271
3 out[3] *127:A 3.67257e-05
4 out[2] out[3] 0
*RES
1 *146:X out[3] 21.6393 
*END

*D_NET *8 0.00115225
*CONN
*P rst I
*I *142:A I *D sky130_fd_sc_hd__clkbuf_2
*CAP
1 rst 0.000560158
2 *142:A 0.000560158
3 out[0] *142:A 3.19385e-05
4 *135:A *142:A 0
*RES
1 rst *142:A 25.6588 
*END

*D_NET *9 0.000868612
*CONN
*I *131:D I *D sky130_fd_sc_hd__dfrtp_1
*I *121:Y O *D sky130_fd_sc_hd__inv_2
*CAP
1 *131:D 0.000320848
2 *121:Y 0.000320848
3 *131:D *131:RESET_B 0.000125731
4 *131:D *132:D 0.000101186
5 *131:D *22:14 0
*RES
1 *121:Y *131:D 33.8857 
*END

*D_NET *10 0.00164111
*CONN
*I *132:D I *D sky130_fd_sc_hd__dfrtp_1
*I *123:X O *D sky130_fd_sc_hd__xor2_1
*CAP
1 *132:D 0.000689173
2 *123:X 0.000689173
3 *132:D *123:B 5.52302e-05
4 *132:D *132:CLK 7.07026e-05
5 *132:D *22:14 0
6 *132:D *23:8 3.56482e-05
7 *131:D *132:D 0.000101186
*RES
1 *123:X *132:D 36.6045 
*END

*D_NET *11 0.000963739
*CONN
*I *133:D I *D sky130_fd_sc_hd__dfrtp_1
*I *126:Y O *D sky130_fd_sc_hd__nor2_1
*CAP
1 *133:D 0.000418017
2 *126:Y 0.000418017
3 *133:D *133:RESET_B 7.24753e-05
4 *133:D *25:8 5.52302e-05
*RES
1 *126:Y *133:D 26.1179 
*END

*D_NET *12 0.000447746
*CONN
*I *134:D I *D sky130_fd_sc_hd__dfrtp_1
*I *127:X O *D sky130_fd_sc_hd__xor2_1
*CAP
1 *134:D 0.000159798
2 *127:X 0.000159798
3 *134:D *127:B 0.000122758
4 *134:D *145:A 0
5 out[2] *134:D 5.39166e-06
*RES
1 *127:X *134:D 30.1893 
*END

*D_NET *13 0.00120643
*CONN
*I *131:RESET_B I *D sky130_fd_sc_hd__dfrtp_1
*I *122:Y O *D sky130_fd_sc_hd__inv_2
*CAP
1 *131:RESET_B 0.000403206
2 *122:Y 0.000403206
3 *131:RESET_B *122:A 0
4 *131:RESET_B *143:A 0.000274288
5 *131:RESET_B *22:14 0
6 *131:D *131:RESET_B 0.000125731
*RES
1 *122:Y *131:RESET_B 25.2643 
*END

*D_NET *14 0.000609669
*CONN
*I *132:RESET_B I *D sky130_fd_sc_hd__dfrtp_1
*I *128:Y O *D sky130_fd_sc_hd__inv_2
*CAP
1 *132:RESET_B 0.000156409
2 *128:Y 0.000156409
3 *132:RESET_B *24:16 0.000271958
4 *132:RESET_B *24:38 2.48938e-05
*RES
1 *128:Y *132:RESET_B 22.0679 
*END

*D_NET *15 0.000487718
*CONN
*I *133:RESET_B I *D sky130_fd_sc_hd__dfrtp_1
*I *129:Y O *D sky130_fd_sc_hd__inv_2
*CAP
1 *133:RESET_B 0.000104355
2 *129:Y 0.000104355
3 *133:RESET_B *126:A 0.000103267
4 *133:RESET_B *25:21 0.000103267
5 *133:D *133:RESET_B 7.24753e-05
*RES
1 *129:Y *133:RESET_B 20.9339 
*END

*D_NET *16 0.000363542
*CONN
*I *134:RESET_B I *D sky130_fd_sc_hd__dfrtp_1
*I *130:Y O *D sky130_fd_sc_hd__inv_2
*CAP
1 *134:RESET_B 0.000167565
2 *130:Y 0.000167565
3 *134:RESET_B *130:A 2.84109e-05
*RES
1 *130:Y *134:RESET_B 20.5857 
*END

*D_NET *17 0.00219069
*CONN
*I *126:A I *D sky130_fd_sc_hd__nor2_1
*I *124:Y O *D sky130_fd_sc_hd__a21oi_1
*CAP
1 *126:A 0.000591693
2 *124:Y 0.000591693
3 *126:A *124:A1 0.000281498
4 *126:A *125:A 0
5 *126:A *127:B 0
6 *126:A *134:CLK 0
7 *126:A *136:A 0.000137983
8 *126:A *141:A 0.000459616
9 *126:A *25:21 2.49388e-05
10 *133:RESET_B *126:A 0.000103267
*RES
1 *124:Y *126:A 39.4929 
*END

*D_NET *18 0.0013433
*CONN
*I *126:B I *D sky130_fd_sc_hd__nor2_1
*I *127:B I *D sky130_fd_sc_hd__xor2_1
*I *125:X O *D sky130_fd_sc_hd__and3_1
*CAP
1 *126:B 0.000227028
2 *127:B 0.000173878
3 *125:X 4.85993e-05
4 *18:8 0.000449506
5 *126:B *134:CLK 0.000222399
6 *127:B *134:CLK 3.12359e-05
7 *127:B *145:A 0
8 *127:B *25:21 0
9 *18:8 *134:CLK 6.78931e-05
10 *126:A *127:B 0
11 *134:D *127:B 0.000122758
*RES
1 *125:X *18:8 14.8357 
2 *18:8 *127:B 17.6214 
3 *18:8 *126:B 17.1214 
*END

*D_NET *19 0.00155454
*CONN
*I *137:A I *D sky130_fd_sc_hd__clkbuf_16
*I *136:A I *D sky130_fd_sc_hd__clkbuf_16
*I *135:X O *D sky130_fd_sc_hd__clkbuf_16
*CAP
1 *137:A 0.000200689
2 *136:A 0.000351574
3 *135:X 0
4 *19:4 0.000552263
5 *136:A *124:A1 6.4443e-05
6 *136:A *141:A 0.000148189
7 *137:A *21:8 9.94037e-05
8 *126:A *136:A 0.000137983
*RES
1 *135:X *19:4 9.3 
2 *19:4 *136:A 23.6571 
3 *19:4 *137:A 13.3536 
*END

*D_NET *20 0.00108712
*CONN
*I *131:CLK I *D sky130_fd_sc_hd__dfrtp_1
*I *133:CLK I *D sky130_fd_sc_hd__dfrtp_1
*I *136:X O *D sky130_fd_sc_hd__clkbuf_16
*CAP
1 *131:CLK 0.000188473
2 *133:CLK 0.000201179
3 *136:X 0
4 *20:6 0.000389652
5 *131:CLK *124:A2 0.000154762
6 *131:CLK *22:14 0
7 *133:CLK *22:14 0
8 *135:A *131:CLK 0.000153054
*RES
1 *136:X *20:6 13.8 
2 *20:6 *133:CLK 17.3 
3 *20:6 *131:CLK 18.4786 
*END

*D_NET *21 0.00264242
*CONN
*I *132:CLK I *D sky130_fd_sc_hd__dfrtp_1
*I *134:CLK I *D sky130_fd_sc_hd__dfrtp_1
*I *137:X O *D sky130_fd_sc_hd__clkbuf_16
*CAP
1 *132:CLK 0.000213572
2 *134:CLK 0.000282567
3 *137:X 0.000497559
4 *21:8 0.000993697
5 *132:CLK *125:A 1.78353e-05
6 *132:CLK *23:8 3.69047e-06
7 *132:CLK *23:10 4.35048e-05
8 *132:CLK *23:36 2.97756e-05
9 *134:CLK *125:A 6.85873e-05
10 *126:A *134:CLK 0
11 *126:B *134:CLK 0.000222399
12 *127:B *134:CLK 3.12359e-05
13 *132:D *132:CLK 7.07026e-05
14 *137:A *21:8 9.94037e-05
15 *18:8 *134:CLK 6.78931e-05
*RES
1 *137:X *21:8 21.3179 
2 *21:8 *134:CLK 20.0679 
3 *21:8 *132:CLK 18.3179 
*END

*D_NET *22 0.00338464
*CONN
*I *122:A I *D sky130_fd_sc_hd__inv_2
*I *130:A I *D sky130_fd_sc_hd__inv_2
*I *128:A I *D sky130_fd_sc_hd__inv_2
*I *129:A I *D sky130_fd_sc_hd__inv_2
*I *142:X O *D sky130_fd_sc_hd__clkbuf_2
*CAP
1 *122:A 0.000178452
2 *130:A 5.1838e-05
3 *128:A 0
4 *129:A 0
5 *142:X 0
6 *22:21 0.000224777
7 *22:14 0.000922552
8 *22:6 0.000928064
9 *122:A *143:A 0.000142856
10 *130:A *24:16 5.58005e-05
11 *22:14 *124:A2 0.000407769
12 *22:14 *125:C 4.43256e-05
13 *22:21 *124:A2 9.21719e-05
14 *22:21 *125:C 0.000161705
15 *22:21 *24:16 0.000145918
16 out[0] *122:A 0
17 out[0] *22:14 0
18 *131:CLK *22:14 0
19 *131:D *22:14 0
20 *131:RESET_B *122:A 0
21 *131:RESET_B *22:14 0
22 *132:D *22:14 0
23 *133:CLK *22:14 0
24 *134:RESET_B *130:A 2.84109e-05
25 *135:A *22:14 0
*RES
1 *142:X *22:6 13.8 
2 *22:6 *22:14 19.75 
3 *22:14 *129:A 9.3 
4 *22:14 *22:21 5.05357 
5 *22:21 *128:A 9.3 
6 *22:21 *130:A 10.6571 
7 *22:6 *122:A 17.1036 
*END

*D_NET *23 0.00542038
*CONN
*I *143:A I *D sky130_fd_sc_hd__buf_2
*I *139:A I *D sky130_fd_sc_hd__dlygate4sd3_1
*I *124:A1 I *D sky130_fd_sc_hd__a21oi_1
*I *125:A I *D sky130_fd_sc_hd__and3_1
*I *131:Q O *D sky130_fd_sc_hd__dfrtp_1
*CAP
1 *143:A 0.000679702
2 *139:A 5.15058e-05
3 *124:A1 0.000353919
4 *125:A 0.000163567
5 *131:Q 0.000242933
6 *23:36 0.000913817
7 *23:10 0.000600226
8 *23:8 0.000508282
9 *124:A1 *124:B1 5.52238e-05
10 *124:A1 *141:A 0.000361914
11 *139:A *123:B 0.00014285
12 *23:36 *24:38 0
13 *122:A *143:A 0.000142856
14 *126:A *124:A1 0.000281498
15 *126:A *125:A 0
16 *131:RESET_B *143:A 0.000274288
17 *132:CLK *125:A 1.78353e-05
18 *132:CLK *23:8 3.69047e-06
19 *132:CLK *23:10 4.35048e-05
20 *132:CLK *23:36 2.97756e-05
21 *132:D *23:8 3.56482e-05
22 *134:CLK *125:A 6.85873e-05
23 *135:A *124:A1 0.000384312
24 *136:A *124:A1 6.4443e-05
*RES
1 *131:Q *23:8 16.8 
2 *23:8 *23:10 1.64286 
3 *23:10 *125:A 16.9607 
4 *23:10 *124:A1 24.7643 
5 *23:8 *23:36 3.16071 
6 *23:36 *139:A 15.1571 
7 *23:36 *143:A 26.05 
*END

*D_NET *24 0.00585492
*CONN
*I *144:A I *D sky130_fd_sc_hd__buf_2
*I *140:A I *D sky130_fd_sc_hd__dlygate4sd3_1
*I *125:B I *D sky130_fd_sc_hd__and3_1
*I *124:A2 I *D sky130_fd_sc_hd__a21oi_1
*I *132:Q O *D sky130_fd_sc_hd__dfrtp_1
*CAP
1 *144:A 0.000493579
2 *140:A 6.03988e-05
3 *125:B 0
4 *124:A2 0.00092262
5 *132:Q 0.000335706
6 *24:38 0.000739518
7 *24:16 0.0012756
8 *24:8 0.000874228
9 *130:A *24:16 5.58005e-05
10 *131:CLK *124:A2 0.000154762
11 *132:RESET_B *24:16 0.000271958
12 *132:RESET_B *24:38 2.48938e-05
13 *22:14 *124:A2 0.000407769
14 *22:21 *124:A2 9.21719e-05
15 *22:21 *24:16 0.000145918
16 *23:36 *24:38 0
*RES
1 *132:Q *24:8 17.6214 
2 *24:8 *24:16 12.1071 
3 *24:16 *124:A2 31.4607 
4 *24:16 *125:B 9.3 
5 *24:8 *24:38 7.66071 
6 *24:38 *140:A 10.2464 
7 *24:38 *144:A 17.6571 
*END

*D_NET *25 0.00284074
*CONN
*I *141:A I *D sky130_fd_sc_hd__dlygate4sd3_1
*I *125:C I *D sky130_fd_sc_hd__and3_1
*I *145:A I *D sky130_fd_sc_hd__buf_2
*I *133:Q O *D sky130_fd_sc_hd__dfrtp_1
*CAP
1 *141:A 0.000160087
2 *125:C 0.000259832
3 *145:A 0.000166791
4 *133:Q 2.84912e-05
5 *25:21 0.000545497
6 *25:8 0.00032086
7 *124:A1 *141:A 0.000361914
8 *126:A *141:A 0.000459616
9 *126:A *25:21 2.49388e-05
10 *127:B *145:A 0
11 *127:B *25:21 0
12 *133:D *25:8 5.52302e-05
13 *133:RESET_B *25:21 0.000103267
14 *134:D *145:A 0
15 *136:A *141:A 0.000148189
16 *22:14 *125:C 4.43256e-05
17 *22:21 *125:C 0.000161705
*RES
1 *133:Q *25:8 14.3357 
2 *25:8 *145:A 16.5857 
3 *25:8 *25:21 2.55357 
4 *25:21 *125:C 17.8357 
5 *25:21 *141:A 20.0679 
*END

*D_NET *26 0.00125254
*CONN
*I *138:A I *D sky130_fd_sc_hd__dlygate4sd3_1
*I *146:A I *D sky130_fd_sc_hd__buf_2
*I *134:Q O *D sky130_fd_sc_hd__dfrtp_1
*CAP
1 *138:A 0.000187784
2 *146:A 0.000238243
3 *134:Q 0
4 *26:4 0.000426027
5 *146:A *127:A 0.000400482
*RES
1 *134:Q *26:4 9.3 
2 *26:4 *146:A 23.4429 
3 *26:4 *138:A 12.3 
*END

*D_NET *27 0.00126264
*CONN
*I *127:A I *D sky130_fd_sc_hd__xor2_1
*I *138:X O *D sky130_fd_sc_hd__dlygate4sd3_1
*CAP
1 *127:A 0.000412718
2 *138:X 0.000412718
3 out[3] *127:A 3.67257e-05
4 *146:A *127:A 0.000400482
*RES
1 *138:X *127:A 35.9571 
*END

*D_NET *28 0.000491929
*CONN
*I *121:A I *D sky130_fd_sc_hd__inv_2
*I *123:A I *D sky130_fd_sc_hd__xor2_1
*I *139:X O *D sky130_fd_sc_hd__dlygate4sd3_1
*CAP
1 *121:A 0
2 *123:A 0.000134161
3 *139:X 2.48428e-05
4 *28:6 0.000159004
5 *123:A *123:B 0.000151061
6 *28:6 *123:B 2.28598e-05
*RES
1 *139:X *28:6 9.83571 
2 *28:6 *123:A 12.3 
3 *28:6 *121:A 9.3 
*END

*D_NET *29 0.00123938
*CONN
*I *123:B I *D sky130_fd_sc_hd__xor2_1
*I *140:X O *D sky130_fd_sc_hd__dlygate4sd3_1
*CAP
1 *123:B 0.000433689
2 *140:X 0.000433689
3 *123:A *123:B 0.000151061
4 *132:D *123:B 5.52302e-05
5 *139:A *123:B 0.00014285
6 *28:6 *123:B 2.28598e-05
*RES
1 *140:X *123:B 26.5464 
*END

*D_NET *30 0.000133696
*CONN
*I *124:B1 I *D sky130_fd_sc_hd__a21oi_1
*I *141:X O *D sky130_fd_sc_hd__dlygate4sd3_1
*CAP
1 *124:B1 1.1624e-05
2 *141:X 1.1624e-05
3 *124:A1 *124:B1 5.52238e-05
4 *135:A *124:B1 5.52238e-05
*RES
1 *141:X *124:B1 19.1357 
*END
