*SPEF "ieee 1481-1999"
*DESIGN "counter"
*DATE "19:54:21 Friday April 03, 2026"
*VENDOR "The OpenROAD Project"
*PROGRAM "OpenROAD"
*VERSION "edf00dff99f6c40d67a30c0e22a8191c5d2ed9d6"
*DESIGN_FLOW "NAME_SCOPE LOCAL" "PIN_CAP NONE"
*DIVIDER /
*DELIMITER :
*BUS_DELIMITER []
*T_UNIT 1 NS
*C_UNIT 1 PF
*R_UNIT 1 OHM
*L_UNIT 1 HENRY

*NAME_MAP
*3 clk
*4 out[0]
*5 out[1]
*6 out[2]
*7 out[3]
*8 rst
*9 _00_
*10 _01_
*11 _02_
*12 _03_
*13 _04_
*14 _05_
*15 _06_
*16 _07_
*17 _08_
*18 _09_
*19 clknet_0_clk
*20 clknet_1_0__leaf_clk
*21 clknet_1_1__leaf_clk
*22 net1
*23 net2
*24 net3
*25 net4
*26 net5
*27 net6
*28 net7
*29 net8
*30 net9
*31 FILLER_0_15
*32 FILLER_0_23
*33 FILLER_0_3
*34 FILLER_0_36
*35 FILLER_0_42
*36 FILLER_0_54
*37 FILLER_0_57
*38 FILLER_0_61
*39 FILLER_1_3
*40 FILLER_1_57
*41 FILLER_1_61
*42 FILLER_2_26
*43 FILLER_2_34
*44 FILLER_2_43
*45 FILLER_2_55
*46 FILLER_2_61
*47 FILLER_3_3
*48 FILLER_3_57
*49 FILLER_3_61
*50 FILLER_4_23
*51 FILLER_4_27
*52 FILLER_4_49
*53 FILLER_4_61
*54 FILLER_5_27
*55 FILLER_5_3
*56 FILLER_5_38
*57 FILLER_5_50
*58 FILLER_5_57
*59 FILLER_6_14
*60 FILLER_6_26
*61 FILLER_6_29
*62 FILLER_6_41
*63 FILLER_6_53
*64 FILLER_6_61
*65 FILLER_6_7
*66 FILLER_7_15
*67 FILLER_7_27
*68 FILLER_7_3
*69 FILLER_7_39
*70 FILLER_7_51
*71 FILLER_7_55
*72 FILLER_7_57
*73 FILLER_7_61
*74 FILLER_8_15
*75 FILLER_8_27
*76 FILLER_8_29
*77 FILLER_8_3
*78 FILLER_8_41
*79 FILLER_8_53
*80 FILLER_8_61
*81 FILLER_9_15
*82 FILLER_9_27
*83 FILLER_9_29
*84 FILLER_9_3
*85 FILLER_9_41
*86 FILLER_9_53
*87 FILLER_9_57
*88 FILLER_9_61
*89 PHY_EDGE_ROW_0_Left_10
*90 PHY_EDGE_ROW_0_Right_0
*91 PHY_EDGE_ROW_1_Left_11
*92 PHY_EDGE_ROW_1_Right_1
*93 PHY_EDGE_ROW_2_Left_12
*94 PHY_EDGE_ROW_2_Right_2
*95 PHY_EDGE_ROW_3_Left_13
*96 PHY_EDGE_ROW_3_Right_3
*97 PHY_EDGE_ROW_4_Left_14
*98 PHY_EDGE_ROW_4_Right_4
*99 PHY_EDGE_ROW_5_Left_15
*100 PHY_EDGE_ROW_5_Right_5
*101 PHY_EDGE_ROW_6_Left_16
*102 PHY_EDGE_ROW_6_Right_6
*103 PHY_EDGE_ROW_7_Left_17
*104 PHY_EDGE_ROW_7_Right_7
*105 PHY_EDGE_ROW_8_Left_18
*106 PHY_EDGE_ROW_8_Right_8
*107 PHY_EDGE_ROW_9_Left_19
*108 PHY_EDGE_ROW_9_Right_9
*109 TAP_TAPCELL_ROW_0_20
*110 TAP_TAPCELL_ROW_0_21
*111 TAP_TAPCELL_ROW_1_22
*112 TAP_TAPCELL_ROW_2_23
*113 TAP_TAPCELL_ROW_3_24
*114 TAP_TAPCELL_ROW_4_25
*115 TAP_TAPCELL_ROW_5_26
*116 TAP_TAPCELL_ROW_6_27
*117 TAP_TAPCELL_ROW_7_28
*118 TAP_TAPCELL_ROW_8_29
*119 TAP_TAPCELL_ROW_9_30
*120 TAP_TAPCELL_ROW_9_31
*121 _10_
*122 _11_
*123 _12_
*124 _13_
*125 _14_
*126 _15_
*127 _16_
*128 _17_
*129 _18_
*130 _19_
*131 _20_
*132 _21_
*133 _22_
*134 _23_
*135 clkbuf_0_clk
*136 clkbuf_1_0__f_clk
*137 clkbuf_1_1__f_clk
*138 hold1
*139 hold2
*140 hold3
*141 hold4
*142 input1
*143 output2
*144 output3
*145 output4
*146 output5

*PORTS
clk I
out[0] O
out[1] O
out[2] O
out[3] O
rst I

*D_NET *3 0.00241739
*CONN
*P clk I
*I *135:A I *D sky130_fd_sc_hd__clkbuf_16
*CAP
1 clk 0.000807415
2 *135:A 0
3 *3:13 0.000807415
4 *3:13 out[0] 6.62302e-05
5 *3:13 *124:B1 5.50049e-05
6 *3:13 *131:CLK 0.000169683
7 *3:13 *4:10 0.000128902
8 *3:13 *8:17 0
9 *3:13 *22:14 0
10 *3:13 *23:29 0.000382737
*RES
1 clk *3:13 37.4988 
2 *3:13 *135:A 23 
*END

*D_NET *4 0.00103555
*CONN
*P out[0] O
*I *143:X O *D sky130_fd_sc_hd__buf_2
*CAP
1 out[0] 0.000221613
2 *143:X 0.000182974
3 *4:10 0.000404587
4 out[0] *8:17 3.12475e-05
5 *4:10 *122:A 0
6 *4:10 *22:14 0
7 *3:13 out[0] 6.62302e-05
8 *3:13 *4:10 0.000128902
*RES
1 *143:X *4:10 49.8425 
2 *4:10 out[0] 0.843733 
*END

*D_NET *5 0.000561445
*CONN
*P out[1] O
*I *144:X O *D sky130_fd_sc_hd__buf_2
*CAP
1 out[1] 0.000280723
2 *144:X 0.000280723
*RES
1 *144:X out[1] 47.7832 
*END

*D_NET *6 0.00107822
*CONN
*P out[2] O
*I *145:X O *D sky130_fd_sc_hd__buf_2
*CAP
1 out[2] 0.000536477
2 *145:X 0.000536477
3 out[2] out[3] 0
4 out[2] *12:10 5.26733e-06
*RES
1 *145:X out[2] 48.0464 
*END

*D_NET *7 0.000945973
*CONN
*P out[3] O
*I *146:X O *D sky130_fd_sc_hd__buf_2
*CAP
1 out[3] 0.000454418
2 *146:X 0.000454418
3 out[3] *127:A 3.71369e-05
4 out[2] out[3] 0
*RES
1 *146:X out[3] 47.0936 
*END

*D_NET *8 0.00124352
*CONN
*P rst I
*I *142:A I *D sky130_fd_sc_hd__clkbuf_2
*CAP
1 rst 0.000606139
2 *142:A 0
3 *8:17 0.000606139
4 out[0] *8:17 3.12475e-05
5 *3:13 *8:17 0
*RES
1 rst *8:17 32.8134 
2 *8:17 *142:A 23 
*END

*D_NET *9 0.000955757
*CONN
*I *131:D I *D sky130_fd_sc_hd__dfrtp_1
*I *121:Y O *D sky130_fd_sc_hd__inv_2
*CAP
1 *131:D 0.000277137
2 *121:Y 8.04774e-05
3 *9:8 0.000357614
4 *131:D *132:D 7.88828e-05
5 *9:8 *10:10 2.29192e-05
6 *9:8 *13:10 0.000138727
7 *9:8 *22:14 0
*RES
1 *121:Y *9:8 39.9057 
2 *9:8 *131:D 43.3857 
*END

*D_NET *10 0.00172138
*CONN
*I *132:D I *D sky130_fd_sc_hd__dfrtp_1
*I *123:X O *D sky130_fd_sc_hd__xor2_1
*CAP
1 *132:D 0.000616455
2 *123:X 0.000112304
3 *10:10 0.000728759
4 *132:D *132:CLK 7.17897e-05
5 *132:D *23:8 3.52606e-05
6 *10:10 *22:14 0
7 *10:10 *29:8 5.50106e-05
8 *131:D *132:D 7.88828e-05
9 *9:8 *10:10 2.29192e-05
*RES
1 *123:X *10:10 39.8229 
2 *10:10 *132:D 46.6223 
*END

*D_NET *11 0.00101664
*CONN
*I *133:D I *D sky130_fd_sc_hd__dfrtp_1
*I *126:Y O *D sky130_fd_sc_hd__nor2_1
*CAP
1 *133:D 0
2 *126:Y 0.000444027
3 *11:6 0.000444027
4 *11:6 *133:RESET_B 7.3572e-05
5 *11:6 *25:8 5.50106e-05
*RES
1 *126:Y *11:6 31.7207 
2 *11:6 *133:D 23 
*END

*D_NET *12 0.000500083
*CONN
*I *134:D I *D sky130_fd_sc_hd__dfrtp_1
*I *127:X O *D sky130_fd_sc_hd__xor2_1
*CAP
1 *134:D 0
2 *127:X 0.000179728
3 *12:10 0.000179728
4 *12:10 *127:B 0.000135359
5 *12:10 *145:A 0
6 out[2] *12:10 5.26733e-06
*RES
1 *127:X *12:10 41.0036 
2 *12:10 *134:D 38 
*END

*D_NET *13 0.00128986
*CONN
*I *131:RESET_B I *D sky130_fd_sc_hd__dfrtp_1
*I *122:Y O *D sky130_fd_sc_hd__inv_2
*CAP
1 *131:RESET_B 0
2 *122:Y 0.000439375
3 *13:10 0.000439375
4 *13:10 *122:A 0
5 *13:10 *22:14 0
6 *13:10 *23:53 0.000272377
7 *9:8 *13:10 0.000138727
*RES
1 *122:Y *13:10 46.0786 
2 *13:10 *131:RESET_B 15 
*END

*D_NET *14 0.000690117
*CONN
*I *132:RESET_B I *D sky130_fd_sc_hd__dfrtp_1
*I *128:Y O *D sky130_fd_sc_hd__inv_2
*CAP
1 *132:RESET_B 0
2 *128:Y 0.000180451
3 *14:8 0.000180451
4 *14:8 *24:16 0.000301419
5 *14:8 *24:38 2.77955e-05
*RES
1 *128:Y *14:8 42.3707 
2 *14:8 *132:RESET_B 15 
*END

*D_NET *15 0.000551343
*CONN
*I *133:RESET_B I *D sky130_fd_sc_hd__dfrtp_1
*I *129:Y O *D sky130_fd_sc_hd__inv_2
*CAP
1 *133:RESET_B 8.20333e-05
2 *129:Y 4.276e-05
3 *15:8 0.000124793
4 *15:8 *126:A 0.000114092
5 *15:8 *25:21 0.000114092
6 *11:6 *133:RESET_B 7.3572e-05
*RES
1 *129:Y *15:8 39.5536 
2 *15:8 *133:RESET_B 16.5018 
*END

*D_NET *16 0.000403179
*CONN
*I *134:RESET_B I *D sky130_fd_sc_hd__dfrtp_1
*I *130:Y O *D sky130_fd_sc_hd__inv_2
*CAP
1 *134:RESET_B 0
2 *130:Y 0.000186918
3 *16:10 0.000186918
4 *16:10 *130:A 2.93431e-05
*RES
1 *130:Y *16:10 40.6514 
2 *16:10 *134:RESET_B 15 
*END

*D_NET *17 0.00239607
*CONN
*I *126:A I *D sky130_fd_sc_hd__nor2_1
*I *124:Y O *D sky130_fd_sc_hd__a21oi_1
*CAP
1 *126:A 0.000336182
2 *124:Y 0.000350678
3 *17:8 0.00068686
4 *126:A *125:A 0
5 *126:A *127:B 0
6 *126:A *134:CLK 0
7 *126:A *141:A 0.000101657
8 *126:A *25:21 2.60049e-05
9 *17:8 *141:A 0.000359326
10 *17:8 *19:12 0.000137651
11 *17:8 *23:29 0.000283619
12 *15:8 *126:A 0.000114092
*RES
1 *124:Y *17:8 46.7207 
2 *17:8 *126:A 43.075 
*END

*D_NET *18 0.0014469
*CONN
*I *126:B I *D sky130_fd_sc_hd__nor2_1
*I *127:B I *D sky130_fd_sc_hd__xor2_1
*I *125:X O *D sky130_fd_sc_hd__and3_1
*CAP
1 *126:B 0.000238499
2 *127:B 0.000191693
3 *125:X 5.86174e-05
4 *18:8 0.000488809
5 *126:B *134:CLK 0.000224567
6 *127:B *134:CLK 3.43144e-05
7 *127:B *145:A 0
8 *127:B *25:21 0
9 *18:8 *134:CLK 7.50374e-05
10 *126:A *127:B 0
11 *12:10 *127:B 0.000135359
*RES
1 *125:X *18:8 39.2014 
2 *18:8 *127:B 42.4329 
3 *18:8 *126:B 41.8529 
*END

*D_NET *19 0.00168513
*CONN
*I *137:A I *D sky130_fd_sc_hd__clkbuf_16
*I *136:A I *D sky130_fd_sc_hd__clkbuf_16
*I *135:X O *D sky130_fd_sc_hd__clkbuf_16
*CAP
1 *137:A 0.000216156
2 *136:A 0
3 *135:X 0
4 *19:12 0.000391615
5 *19:4 0.00060777
6 *137:A *21:8 0.000103415
7 *19:12 *141:A 0.000163352
8 *19:12 *23:29 6.51763e-05
9 *17:8 *19:12 0.000137651
*RES
1 *135:X *19:4 23 
2 *19:4 *19:12 36.2143 
3 *19:12 *136:A 23 
4 *19:4 *137:A 27.7021 
*END

*D_NET *20 0.00120768
*CONN
*I *131:CLK I *D sky130_fd_sc_hd__dfrtp_1
*I *133:CLK I *D sky130_fd_sc_hd__dfrtp_1
*I *136:X O *D sky130_fd_sc_hd__clkbuf_16
*CAP
1 *131:CLK 0.000212558
2 *133:CLK 0.000220486
3 *136:X 0
4 *20:6 0.000433044
5 *131:CLK *22:14 0
6 *131:CLK *24:24 0.000171906
7 *133:CLK *22:14 0
8 *3:13 *131:CLK 0.000169683
*RES
1 *136:X *20:6 38 
2 *20:6 *133:CLK 42.06 
3 *20:6 *131:CLK 43.4271 
*END

*D_NET *21 0.00292201
*CONN
*I *132:CLK I *D sky130_fd_sc_hd__dfrtp_1
*I *134:CLK I *D sky130_fd_sc_hd__dfrtp_1
*I *137:X O *D sky130_fd_sc_hd__clkbuf_16
*CAP
1 *132:CLK 0.000248304
2 *134:CLK 0.000329537
3 *137:X 0.000546789
4 *21:8 0.00112463
5 *132:CLK *125:A 1.7992e-05
6 *132:CLK *23:8 3.7122e-06
7 *132:CLK *23:10 4.3407e-05
8 *132:CLK *23:36 2.99716e-05
9 *134:CLK *125:A 6.85412e-05
10 *126:A *134:CLK 0
11 *126:B *134:CLK 0.000224567
12 *127:B *134:CLK 3.43144e-05
13 *132:D *132:CLK 7.17897e-05
14 *137:A *21:8 0.000103415
15 *18:8 *134:CLK 7.50374e-05
*RES
1 *137:X *21:8 46.7207 
2 *21:8 *134:CLK 45.2707 
3 *21:8 *132:CLK 43.2407 
*END

*D_NET *22 0.00367976
*CONN
*I *122:A I *D sky130_fd_sc_hd__inv_2
*I *130:A I *D sky130_fd_sc_hd__inv_2
*I *128:A I *D sky130_fd_sc_hd__inv_2
*I *129:A I *D sky130_fd_sc_hd__inv_2
*I *142:X O *D sky130_fd_sc_hd__clkbuf_2
*CAP
1 *122:A 0.000199311
2 *130:A 5.7558e-05
3 *128:A 0
4 *129:A 0
5 *142:X 0
6 *22:21 0.000256019
7 *22:14 0.0010354
8 *22:6 0.00103625
9 *122:A *23:53 0.00014196
10 *130:A *24:16 5.70007e-05
11 *22:14 *125:C 4.5051e-05
12 *22:14 *24:24 0.000413612
13 *22:21 *125:C 0.000163723
14 *22:21 *24:16 0.000151306
15 *22:21 *24:24 9.32275e-05
16 *131:CLK *22:14 0
17 *133:CLK *22:14 0
18 *3:13 *22:14 0
19 *4:10 *122:A 0
20 *4:10 *22:14 0
21 *9:8 *22:14 0
22 *10:10 *22:14 0
23 *13:10 *122:A 0
24 *13:10 *22:14 0
25 *16:10 *130:A 2.93431e-05
*RES
1 *142:X *22:6 38 
2 *22:6 *22:14 32.69 
3 *22:14 *129:A 23 
4 *22:14 *22:21 5.86214 
5 *22:21 *128:A 23 
6 *22:21 *130:A 24.5743 
7 *22:6 *122:A 41.8321 
*END

*D_NET *23 0.0057699
*CONN
*I *143:A I *D sky130_fd_sc_hd__buf_2
*I *139:A I *D sky130_fd_sc_hd__dlygate4sd3_1
*I *124:A1 I *D sky130_fd_sc_hd__a21oi_1
*I *125:A I *D sky130_fd_sc_hd__and3_1
*I *131:Q O *D sky130_fd_sc_hd__dfrtp_1
*CAP
1 *143:A 0
2 *139:A 5.72949e-05
3 *124:A1 0
4 *125:A 0.000197661
5 *131:Q 0.000250492
6 *23:53 0.000730333
7 *23:36 0.0009999
8 *23:29 0.000387453
9 *23:10 0.00068404
10 *23:8 0.00056169
11 *139:A *29:8 0.000141954
12 *23:29 *124:B1 5.50049e-05
13 *23:29 *141:A 0.000359326
14 *23:36 *24:38 0
15 *122:A *23:53 0.00014196
16 *126:A *125:A 0
17 *132:CLK *125:A 1.7992e-05
18 *132:CLK *23:8 3.7122e-06
19 *132:CLK *23:10 4.3407e-05
20 *132:CLK *23:36 2.99716e-05
21 *132:D *23:8 3.52606e-05
22 *134:CLK *125:A 6.85412e-05
23 *3:13 *23:29 0.000382737
24 *13:10 *23:53 0.000272377
25 *17:8 *23:29 0.000283619
26 *19:12 *23:29 6.51763e-05
*RES
1 *131:Q *23:8 41.48 
2 *23:8 *23:10 1.90571 
3 *23:10 *125:A 41.6664 
4 *23:10 *23:29 27.7186 
5 *23:29 *124:A1 23 
6 *23:8 *23:36 3.66643 
7 *23:36 *139:A 39.5743 
8 *23:36 *23:53 29.21 
9 *23:53 *143:A 23 
*END

*D_NET *24 0.00625474
*CONN
*I *144:A I *D sky130_fd_sc_hd__buf_2
*I *140:A I *D sky130_fd_sc_hd__dlygate4sd3_1
*I *125:B I *D sky130_fd_sc_hd__and3_1
*I *124:A2 I *D sky130_fd_sc_hd__a21oi_1
*I *132:Q O *D sky130_fd_sc_hd__dfrtp_1
*CAP
1 *144:A 0.000517887
2 *140:A 6.78343e-05
3 *125:B 0
4 *124:A2 0
5 *132:Q 0.000349081
6 *24:38 0.000797819
7 *24:24 0.000974385
8 *24:16 0.00137234
9 *24:8 0.000959133
10 *130:A *24:16 5.70007e-05
11 *131:CLK *24:24 0.000171906
12 *14:8 *24:16 0.000301419
13 *14:8 *24:38 2.77955e-05
14 *22:14 *24:24 0.000413612
15 *22:21 *24:16 0.000151306
16 *22:21 *24:24 9.32275e-05
17 *23:36 *24:38 0
*RES
1 *132:Q *24:8 42.4329 
2 *24:8 *24:16 23.8243 
3 *24:16 *24:24 45.2664 
4 *24:24 *124:A2 23 
5 *24:16 *125:B 23 
6 *24:8 *24:38 18.6664 
7 *24:38 *140:A 24.0979 
8 *24:38 *144:A 32.6943 
*END

*D_NET *25 0.0030737
*CONN
*I *141:A I *D sky130_fd_sc_hd__dlygate4sd3_1
*I *125:C I *D sky130_fd_sc_hd__and3_1
*I *145:A I *D sky130_fd_sc_hd__buf_2
*I *133:Q O *D sky130_fd_sc_hd__dfrtp_1
*CAP
1 *141:A 0.000196994
2 *125:C 0.000277492
3 *145:A 0.000186845
4 *133:Q 3.27104e-05
5 *25:21 0.000623525
6 *25:8 0.000368594
7 *126:A *141:A 0.000101657
8 *126:A *25:21 2.60049e-05
9 *127:B *145:A 0
10 *127:B *25:21 0
11 *11:6 *25:8 5.50106e-05
12 *12:10 *145:A 0
13 *15:8 *25:21 0.000114092
14 *17:8 *141:A 0.000359326
15 *19:12 *141:A 0.000163352
16 *22:14 *125:C 4.5051e-05
17 *22:21 *125:C 0.000163723
18 *23:29 *141:A 0.000359326
*RES
1 *133:Q *25:8 38.6214 
2 *25:8 *145:A 41.2314 
3 *25:8 *25:21 2.96214 
4 *25:21 *125:C 42.6814 
5 *25:21 *141:A 45.2707 
*END

*D_NET *26 0.0013738
*CONN
*I *138:A I *D sky130_fd_sc_hd__dlygate4sd3_1
*I *146:A I *D sky130_fd_sc_hd__buf_2
*I *134:Q O *D sky130_fd_sc_hd__dfrtp_1
*CAP
1 *138:A 0.000202974
2 *146:A 0
3 *134:Q 0
4 *26:12 0.000274564
5 *26:4 0.000477538
6 *26:12 *127:A 0.000276834
7 *26:12 *27:8 0.000141888
*RES
1 *134:Q *26:4 23 
2 *26:4 *26:12 35.9657 
3 *26:12 *146:A 23 
4 *26:4 *138:A 26.48 
*END

*D_NET *27 0.00136076
*CONN
*I *127:A I *D sky130_fd_sc_hd__xor2_1
*I *138:X O *D sky130_fd_sc_hd__dlygate4sd3_1
*CAP
1 *127:A 0.000373777
2 *138:X 7.86745e-05
3 *27:8 0.000452451
4 out[3] *127:A 3.71369e-05
5 *26:12 *127:A 0.000276834
6 *26:12 *27:8 0.000141888
*RES
1 *138:X *27:8 39.9057 
2 *27:8 *127:A 45.7886 
*END

*D_NET *28 0.000524243
*CONN
*I *121:A I *D sky130_fd_sc_hd__inv_2
*I *123:A I *D sky130_fd_sc_hd__xor2_1
*I *139:X O *D sky130_fd_sc_hd__dlygate4sd3_1
*CAP
1 *121:A 0
2 *123:A 0.000145159
3 *139:X 2.87854e-05
4 *28:6 0.000173944
5 *123:A *29:8 0.000153145
6 *28:6 *29:8 2.32101e-05
*RES
1 *139:X *28:6 23.6214 
2 *28:6 *123:A 26.48 
3 *28:6 *121:A 23 
*END

*D_NET *29 0.00130851
*CONN
*I *123:B I *D sky130_fd_sc_hd__xor2_1
*I *140:X O *D sky130_fd_sc_hd__dlygate4sd3_1
*CAP
1 *123:B 0
2 *140:X 0.000467596
3 *29:8 0.000467596
4 *123:A *29:8 0.000153145
5 *139:A *29:8 0.000141954
6 *10:10 *29:8 5.50106e-05
7 *28:6 *29:8 2.32101e-05
*RES
1 *140:X *29:8 32.2179 
2 *29:8 *123:B 23 
*END

*D_NET *30 0.000140026
*CONN
*I *124:B1 I *D sky130_fd_sc_hd__a21oi_1
*I *141:X O *D sky130_fd_sc_hd__dlygate4sd3_1
*CAP
1 *124:B1 1.50079e-05
2 *141:X 1.50079e-05
3 *3:13 *124:B1 5.50049e-05
4 *23:29 *124:B1 5.50049e-05
*RES
1 *141:X *124:B1 46.6214 
*END
