*SPEF "ieee 1481-1999"
*DESIGN "control_unit"
*DATE "09:19:33 Saturday April 04, 2026"
*VENDOR "The OpenROAD Project"
*PROGRAM "OpenROAD"
*VERSION "edf00dff99f6c40d67a30c0e22a8191c5d2ed9d6"
*DESIGN_FLOW "NAME_SCOPE LOCAL" "PIN_CAP NONE"
*DIVIDER /
*DELIMITER :
*BUS_DELIMITER []
*T_UNIT 1 NS
*C_UNIT 1 PF
*R_UNIT 1 OHM
*L_UNIT 1 HENRY

*NAME_MAP
*3 busy
*4 clk
*5 done
*6 rst
*7 start
*8 state_out[0]
*9 state_out[1]
*10 _0_
*11 _1_
*12 clknet_0_clk
*13 clknet_1_0__leaf_clk
*14 clknet_1_1__leaf_clk
*15 net1
*16 net2
*17 net3
*18 net4
*19 net5
*20 net6
*21 net7
*22 net8
*23 net9
*24 next_state\[0\]
*25 next_state\[1\]
*26 FILLER_0_15
*27 FILLER_0_27
*28 FILLER_0_29
*29 FILLER_0_3
*30 FILLER_0_41
*31 FILLER_0_53
*32 FILLER_0_57
*33 FILLER_0_69
*34 FILLER_1_15
*35 FILLER_1_27
*36 FILLER_1_3
*37 FILLER_1_39
*38 FILLER_1_51
*39 FILLER_1_55
*40 FILLER_1_57
*41 FILLER_1_69
*42 FILLER_2_15
*43 FILLER_2_27
*44 FILLER_2_29
*45 FILLER_2_3
*46 FILLER_2_41
*47 FILLER_2_53
*48 FILLER_2_65
*49 FILLER_2_77
*50 FILLER_3_15
*51 FILLER_3_27
*52 FILLER_3_3
*53 FILLER_3_39
*54 FILLER_3_51
*55 FILLER_3_55
*56 FILLER_3_57
*57 FILLER_3_69
*58 FILLER_4_15
*59 FILLER_4_27
*60 FILLER_4_29
*61 FILLER_4_3
*62 FILLER_4_41
*63 FILLER_4_53
*64 FILLER_4_61
*65 FILLER_4_65
*66 FILLER_4_77
*67 FILLER_5_30
*68 FILLER_5_34
*69 FILLER_5_46
*70 FILLER_5_54
*71 FILLER_5_6
*72 FILLER_6_25
*73 FILLER_6_29
*74 FILLER_6_3
*75 FILLER_6_33
*76 FILLER_6_54
*77 FILLER_6_60
*78 FILLER_7_19
*79 FILLER_7_30
*80 FILLER_7_39
*81 FILLER_7_51
*82 FILLER_7_55
*83 FILLER_7_65
*84 FILLER_7_7
*85 FILLER_7_77
*86 FILLER_8_15
*87 FILLER_8_29
*88 FILLER_8_3
*89 FILLER_8_38
*90 FILLER_8_50
*91 FILLER_8_62
*92 FILLER_8_74
*93 FILLER_8_80
*94 FILLER_9_15
*95 FILLER_9_27
*96 FILLER_9_29
*97 FILLER_9_3
*98 FILLER_9_35
*99 FILLER_9_42
*100 FILLER_9_54
*101 FILLER_9_57
*102 FILLER_9_69
*103 PHY_EDGE_ROW_0_Left_10
*104 PHY_EDGE_ROW_0_Right_0
*105 PHY_EDGE_ROW_1_Left_11
*106 PHY_EDGE_ROW_1_Right_1
*107 PHY_EDGE_ROW_2_Left_12
*108 PHY_EDGE_ROW_2_Right_2
*109 PHY_EDGE_ROW_3_Left_13
*110 PHY_EDGE_ROW_3_Right_3
*111 PHY_EDGE_ROW_4_Left_14
*112 PHY_EDGE_ROW_4_Right_4
*113 PHY_EDGE_ROW_5_Left_15
*114 PHY_EDGE_ROW_5_Right_5
*115 PHY_EDGE_ROW_6_Left_16
*116 PHY_EDGE_ROW_6_Right_6
*117 PHY_EDGE_ROW_7_Left_17
*118 PHY_EDGE_ROW_7_Right_7
*119 PHY_EDGE_ROW_8_Left_18
*120 PHY_EDGE_ROW_8_Right_8
*121 PHY_EDGE_ROW_9_Left_19
*122 PHY_EDGE_ROW_9_Right_9
*123 TAP_TAPCELL_ROW_0_20
*124 TAP_TAPCELL_ROW_0_21
*125 TAP_TAPCELL_ROW_1_22
*126 TAP_TAPCELL_ROW_2_23
*127 TAP_TAPCELL_ROW_3_24
*128 TAP_TAPCELL_ROW_4_25
*129 TAP_TAPCELL_ROW_5_26
*130 TAP_TAPCELL_ROW_6_27
*131 TAP_TAPCELL_ROW_7_28
*132 TAP_TAPCELL_ROW_8_29
*133 TAP_TAPCELL_ROW_9_30
*134 TAP_TAPCELL_ROW_9_31
*135 _2_
*136 _3_
*137 _4_
*138 _5_
*139 _6_
*140 _7_
*141 _8_
*142 _9_
*143 clkbuf_0_clk
*144 clkbuf_1_0__f_clk
*145 clkbuf_1_1__f_clk
*146 hold1
*147 hold2
*148 hold3
*149 input1
*150 input2
*151 output3
*152 output4
*153 output5
*154 output6

*PORTS
busy O
clk I
done O
rst I
start I
state_out[0] O
state_out[1] O

*D_NET *3 0.0010111
*CONN
*P busy O
*I *151:X O *D sky130_fd_sc_hd__buf_2
*CAP
1 busy 0.000505548
2 *151:X 0.000505548
3 busy done 0
*RES
1 *151:X busy 48.9786 
*END

*D_NET *4 0.00254637
*CONN
*P clk I
*I *143:A I *D sky130_fd_sc_hd__clkbuf_16
*CAP
1 clk 0.00122974
2 *143:A 0
3 *4:17 0.00122974
4 *4:17 *144:A 5.56356e-05
5 *4:17 *7:17 3.12475e-05
6 *4:17 *19:8 0
*RES
1 clk *4:17 31.8305 
2 *4:17 *143:A 23 
*END

*D_NET *5 0.00107673
*CONN
*P done O
*I *152:X O *D sky130_fd_sc_hd__buf_2
*CAP
1 done 0.000538367
2 *152:X 0.000538367
3 busy done 0
*RES
1 *152:X done 49.1236 
*END

*D_NET *6 0.000561104
*CONN
*P rst I
*I *149:A I *D sky130_fd_sc_hd__buf_1
*CAP
1 rst 0.000241431
2 *149:A 0.000241431
3 *149:A state_out[1] 7.82427e-05
*RES
1 rst *149:A 48.1354 
*END

*D_NET *7 0.000686117
*CONN
*P start I
*I *150:A I *D sky130_fd_sc_hd__clkbuf_1
*CAP
1 start 0.00031371
2 *150:A 0
3 *7:17 0.00031371
4 *7:17 state_out[0] 1.5289e-05
5 *7:17 *8:14 1.21605e-05
6 *4:17 *7:17 3.12475e-05
*RES
1 start *7:17 27.5105 
2 *7:17 *150:A 23 
*END

*D_NET *8 0.000767681
*CONN
*P state_out[0] O
*I *153:X O *D sky130_fd_sc_hd__buf_2
*CAP
1 state_out[0] 8.65766e-05
2 *153:X 0.000283539
3 *8:14 0.000370116
4 *7:17 state_out[0] 1.5289e-05
5 *7:17 *8:14 1.21605e-05
*RES
1 *153:X *8:14 49.9 
2 *8:14 state_out[0] 0.382667 
*END

*D_NET *9 0.000640548
*CONN
*P state_out[1] O
*I *154:X O *D sky130_fd_sc_hd__buf_2
*CAP
1 state_out[1] 0.00027013
2 *154:X 0.00027013
3 state_out[1] *14:10 2.20458e-05
4 *149:A state_out[1] 7.82427e-05
*RES
1 *154:X state_out[1] 47.8691 
*END

*D_NET *10 0.000351164
*CONN
*I *141:RESET_B I *D sky130_fd_sc_hd__dfrtp_1
*I *135:Y O *D sky130_fd_sc_hd__inv_2
*CAP
1 *141:RESET_B 0.000175582
2 *135:Y 0.000175582
*RES
1 *135:Y *141:RESET_B 25.9311 
*END

*D_NET *11 0.000542818
*CONN
*I *142:RESET_B I *D sky130_fd_sc_hd__dfrtp_1
*I *140:Y O *D sky130_fd_sc_hd__inv_2
*CAP
1 *142:RESET_B 0
2 *140:Y 0.00017389
3 *11:10 0.00017389
4 *11:10 *15:6 5.67058e-05
5 *11:10 *15:16 0.000138331
*RES
1 *140:Y *11:10 41.3557 
2 *11:10 *142:RESET_B 15 
*END

*D_NET *12 0.00292775
*CONN
*I *145:A I *D sky130_fd_sc_hd__clkbuf_16
*I *144:A I *D sky130_fd_sc_hd__clkbuf_16
*I *143:X O *D sky130_fd_sc_hd__clkbuf_16
*CAP
1 *145:A 0.000501879
2 *144:A 0.000934179
3 *143:X 0
4 *12:4 0.00143606
5 *4:17 *144:A 5.56356e-05
*RES
1 *143:X *12:4 23 
2 *12:4 *144:A 35.0764 
3 *12:4 *145:A 29.8357 
*END

*D_NET *13 0.000231806
*CONN
*I *141:CLK I *D sky130_fd_sc_hd__dfrtp_1
*I *144:X O *D sky130_fd_sc_hd__clkbuf_16
*CAP
1 *141:CLK 0
2 *144:X 9.85942e-05
3 *13:8 9.85942e-05
4 *13:8 *24:10 3.46181e-05
*RES
1 *144:X *13:8 39.9057 
2 *13:8 *141:CLK 38 
*END

*D_NET *14 0.000341595
*CONN
*I *142:CLK I *D sky130_fd_sc_hd__dfrtp_1
*I *145:X O *D sky130_fd_sc_hd__clkbuf_16
*CAP
1 *142:CLK 0
2 *145:X 0.000140705
3 *14:10 0.000140705
4 *14:10 *22:10 3.81391e-05
5 state_out[1] *14:10 2.20458e-05
*RES
1 *145:X *14:10 40.5271 
2 *14:10 *142:CLK 38 
*END

*D_NET *15 0.00307442
*CONN
*I *140:A I *D sky130_fd_sc_hd__inv_2
*I *135:A I *D sky130_fd_sc_hd__inv_2
*I *149:X O *D sky130_fd_sc_hd__buf_1
*CAP
1 *140:A 4.01155e-05
2 *135:A 0
3 *149:X 0.000430165
4 *15:16 0.000913076
5 *15:6 0.00138336
6 *15:16 *154:A 9.67842e-05
7 *15:16 *20:12 1.58805e-05
8 *11:10 *15:6 5.67058e-05
9 *11:10 *15:16 0.000138331
*RES
1 *149:X *15:6 30.7679 
2 *15:6 *15:16 46.7164 
3 *15:16 *135:A 23 
4 *15:6 *140:A 23.8493 
*END

*D_NET *16 0.00141034
*CONN
*I *138:A2 I *D sky130_fd_sc_hd__o21ba_1
*I *150:X O *D sky130_fd_sc_hd__clkbuf_1
*CAP
1 *138:A2 0
2 *150:X 0.000656273
3 *16:10 0.000656273
4 *16:10 *20:35 0
5 *16:10 *24:10 9.77972e-05
*RES
1 *150:X *16:10 48.4607 
2 *16:10 *138:A2 38 
*END

*D_NET *17 0.00104327
*CONN
*I *151:A I *D sky130_fd_sc_hd__buf_2
*I *136:X O *D sky130_fd_sc_hd__or2_1
*CAP
1 *151:A 0
2 *136:X 0.000420988
3 *17:14 0.000420988
4 *17:14 *139:B 1.12349e-05
5 *17:14 *19:37 5.41288e-05
6 *17:14 *20:12 6.59159e-05
7 *17:14 *20:18 7.00156e-05
*RES
1 *136:X *17:14 46.6379 
2 *17:14 *151:A 38 
*END

*D_NET *18 0.000747648
*CONN
*I *152:A I *D sky130_fd_sc_hd__buf_2
*I *137:X O *D sky130_fd_sc_hd__and2_1
*CAP
1 *152:A 0.000247595
2 *137:X 0.000126229
3 *18:8 0.000373824
*RES
1 *137:X *18:8 40.2579 
2 *18:8 *152:A 42.4329 
*END

*D_NET *19 0.00329537
*CONN
*I *137:A I *D sky130_fd_sc_hd__and2_1
*I *136:A I *D sky130_fd_sc_hd__or2_1
*I *146:A I *D sky130_fd_sc_hd__dlygate4sd3_1
*I *148:A I *D sky130_fd_sc_hd__dlygate4sd3_1
*I *153:A I *D sky130_fd_sc_hd__buf_2
*I *141:Q O *D sky130_fd_sc_hd__dfrtp_1
*CAP
1 *137:A 0.000180719
2 *136:A 0
3 *146:A 6.19132e-05
4 *148:A 0
5 *153:A 0.000551036
6 *141:Q 0.000264505
7 *19:37 0.000389858
8 *19:10 0.000612949
9 *19:8 0.000473644
10 *137:A *20:18 3.58447e-05
11 *137:A *20:27 0.000162211
12 *153:A *20:35 0.00010018
13 *153:A *23:8 0.000168821
14 *153:A *24:10 5.41288e-05
15 *19:37 *20:18 0.000185428
16 *19:37 *20:35 0
17 *19:37 *21:10 0
18 *19:37 *25:8 0
19 *4:17 *19:8 0
20 *17:14 *19:37 5.41288e-05
*RES
1 *141:Q *19:8 42.7229 
2 *19:8 *19:10 15 
3 *19:10 *153:A 34.6 
4 *19:10 *148:A 23 
5 *19:10 *146:A 24.0979 
6 *19:8 *19:37 19.6607 
7 *19:37 *136:A 23 
8 *19:37 *137:A 27.3293 
*END

*D_NET *20 0.00559051
*CONN
*I *154:A I *D sky130_fd_sc_hd__buf_2
*I *139:B I *D sky130_fd_sc_hd__xor2_1
*I *137:B I *D sky130_fd_sc_hd__and2_1
*I *138:A1 I *D sky130_fd_sc_hd__o21ba_1
*I *136:B I *D sky130_fd_sc_hd__or2_1
*I *142:Q O *D sky130_fd_sc_hd__dfrtp_1
*CAP
1 *154:A 0.000553443
2 *139:B 3.71244e-05
3 *137:B 0
4 *138:A1 0
5 *136:B 0
6 *142:Q 0
7 *20:35 0.000185775
8 *20:27 0.000259833
9 *20:18 0.000466673
10 *20:12 0.00156099
11 *20:4 0.00168469
12 *20:35 *23:8 9.84794e-05
13 *137:A *20:18 3.58447e-05
14 *137:A *20:27 0.000162211
15 *153:A *20:35 0.00010018
16 *15:16 *154:A 9.67842e-05
17 *15:16 *20:12 1.58805e-05
18 *16:10 *20:35 0
19 *17:14 *139:B 1.12349e-05
20 *17:14 *20:12 6.59159e-05
21 *17:14 *20:18 7.00156e-05
22 *19:37 *20:18 0.000185428
23 *19:37 *20:35 0
*RES
1 *142:Q *20:4 23 
2 *20:4 *20:12 49.3471 
3 *20:12 *20:18 6.38 
4 *20:18 *136:B 23 
5 *20:18 *20:27 2.07143 
6 *20:27 *20:35 33.7079 
7 *20:35 *138:A1 23 
8 *20:27 *137:B 23 
9 *20:12 *139:B 23.8493 
10 *20:4 *154:A 33.1707 
*END

*D_NET *21 0.000796152
*CONN
*I *139:A I *D sky130_fd_sc_hd__xor2_1
*I *146:X O *D sky130_fd_sc_hd__dlygate4sd3_1
*CAP
1 *139:A 0
2 *146:X 0.000383384
3 *21:10 0.000383384
4 *21:10 *147:A 2.93845e-05
5 *19:37 *21:10 0
*RES
1 *146:X *21:10 42.4329 
2 *21:10 *139:A 38 
*END

*D_NET *22 0.0011612
*CONN
*I *142:D I *D sky130_fd_sc_hd__dfrtp_1
*I *147:X O *D sky130_fd_sc_hd__dlygate4sd3_1
*CAP
1 *142:D 0
2 *147:X 0.000561532
3 *22:10 0.000561532
4 *14:10 *22:10 3.81391e-05
*RES
1 *147:X *22:10 46.8036 
2 *22:10 *142:D 38 
*END

*D_NET *23 0.00071937
*CONN
*I *138:B1_N I *D sky130_fd_sc_hd__o21ba_1
*I *148:X O *D sky130_fd_sc_hd__dlygate4sd3_1
*CAP
1 *138:B1_N 0
2 *148:X 0.000226035
3 *23:8 0.000226035
4 *153:A *23:8 0.000168821
5 *20:35 *23:8 9.84794e-05
*RES
1 *148:X *23:8 27.93 
2 *23:8 *138:B1_N 23 
*END

*D_NET *24 0.00071646
*CONN
*I *141:D I *D sky130_fd_sc_hd__dfrtp_1
*I *138:X O *D sky130_fd_sc_hd__o21ba_1
*CAP
1 *141:D 0
2 *138:X 0.000264958
3 *24:10 0.000264958
4 *153:A *24:10 5.41288e-05
5 *13:8 *24:10 3.46181e-05
6 *16:10 *24:10 9.77972e-05
*RES
1 *138:X *24:10 43.4686 
2 *24:10 *141:D 38 
*END

*D_NET *25 0.00143786
*CONN
*I *147:A I *D sky130_fd_sc_hd__dlygate4sd3_1
*I *139:X O *D sky130_fd_sc_hd__xor2_1
*CAP
1 *147:A 0.000526397
2 *139:X 0.00017784
3 *25:8 0.000704237
4 *19:37 *25:8 0
5 *21:10 *147:A 2.93845e-05
*RES
1 *139:X *25:8 40.9621 
2 *25:8 *147:A 47.6736 
*END
