*SPEF "ieee 1481-1999"
*DESIGN "counter"
*DATE "19:54:21 Friday April 03, 2026"
*VENDOR "The OpenROAD Project"
*PROGRAM "OpenROAD"
*VERSION "edf00dff99f6c40d67a30c0e22a8191c5d2ed9d6"
*DESIGN_FLOW "NAME_SCOPE LOCAL" "PIN_CAP NONE"
*DIVIDER /
*DELIMITER :
*BUS_DELIMITER []
*T_UNIT 1 NS
*C_UNIT 1 PF
*R_UNIT 1 OHM
*L_UNIT 1 HENRY

*NAME_MAP
*3 clk
*4 out[0]
*5 out[1]
*6 out[2]
*7 out[3]
*8 rst
*9 _00_
*10 _01_
*11 _02_
*12 _03_
*13 _04_
*14 _05_
*15 _06_
*16 _07_
*17 _08_
*18 _09_
*19 clknet_0_clk
*20 clknet_1_0__leaf_clk
*21 clknet_1_1__leaf_clk
*22 net1
*23 net2
*24 net3
*25 net4
*26 net5
*27 net6
*28 net7
*29 net8
*30 net9
*31 FILLER_0_15
*32 FILLER_0_23
*33 FILLER_0_3
*34 FILLER_0_36
*35 FILLER_0_42
*36 FILLER_0_54
*37 FILLER_0_57
*38 FILLER_0_61
*39 FILLER_1_3
*40 FILLER_1_57
*41 FILLER_1_61
*42 FILLER_2_26
*43 FILLER_2_34
*44 FILLER_2_43
*45 FILLER_2_55
*46 FILLER_2_61
*47 FILLER_3_3
*48 FILLER_3_57
*49 FILLER_3_61
*50 FILLER_4_23
*51 FILLER_4_27
*52 FILLER_4_49
*53 FILLER_4_61
*54 FILLER_5_27
*55 FILLER_5_3
*56 FILLER_5_38
*57 FILLER_5_50
*58 FILLER_5_57
*59 FILLER_6_14
*60 FILLER_6_26
*61 FILLER_6_29
*62 FILLER_6_41
*63 FILLER_6_53
*64 FILLER_6_61
*65 FILLER_6_7
*66 FILLER_7_15
*67 FILLER_7_27
*68 FILLER_7_3
*69 FILLER_7_39
*70 FILLER_7_51
*71 FILLER_7_55
*72 FILLER_7_57
*73 FILLER_7_61
*74 FILLER_8_15
*75 FILLER_8_27
*76 FILLER_8_29
*77 FILLER_8_3
*78 FILLER_8_41
*79 FILLER_8_53
*80 FILLER_8_61
*81 FILLER_9_15
*82 FILLER_9_27
*83 FILLER_9_29
*84 FILLER_9_3
*85 FILLER_9_41
*86 FILLER_9_53
*87 FILLER_9_57
*88 FILLER_9_61
*89 PHY_EDGE_ROW_0_Left_10
*90 PHY_EDGE_ROW_0_Right_0
*91 PHY_EDGE_ROW_1_Left_11
*92 PHY_EDGE_ROW_1_Right_1
*93 PHY_EDGE_ROW_2_Left_12
*94 PHY_EDGE_ROW_2_Right_2
*95 PHY_EDGE_ROW_3_Left_13
*96 PHY_EDGE_ROW_3_Right_3
*97 PHY_EDGE_ROW_4_Left_14
*98 PHY_EDGE_ROW_4_Right_4
*99 PHY_EDGE_ROW_5_Left_15
*100 PHY_EDGE_ROW_5_Right_5
*101 PHY_EDGE_ROW_6_Left_16
*102 PHY_EDGE_ROW_6_Right_6
*103 PHY_EDGE_ROW_7_Left_17
*104 PHY_EDGE_ROW_7_Right_7
*105 PHY_EDGE_ROW_8_Left_18
*106 PHY_EDGE_ROW_8_Right_8
*107 PHY_EDGE_ROW_9_Left_19
*108 PHY_EDGE_ROW_9_Right_9
*109 TAP_TAPCELL_ROW_0_20
*110 TAP_TAPCELL_ROW_0_21
*111 TAP_TAPCELL_ROW_1_22
*112 TAP_TAPCELL_ROW_2_23
*113 TAP_TAPCELL_ROW_3_24
*114 TAP_TAPCELL_ROW_4_25
*115 TAP_TAPCELL_ROW_5_26
*116 TAP_TAPCELL_ROW_6_27
*117 TAP_TAPCELL_ROW_7_28
*118 TAP_TAPCELL_ROW_8_29
*119 TAP_TAPCELL_ROW_9_30
*120 TAP_TAPCELL_ROW_9_31
*121 _10_
*122 _11_
*123 _12_
*124 _13_
*125 _14_
*126 _15_
*127 _16_
*128 _17_
*129 _18_
*130 _19_
*131 _20_
*132 _21_
*133 _22_
*134 _23_
*135 clkbuf_0_clk
*136 clkbuf_1_0__f_clk
*137 clkbuf_1_1__f_clk
*138 hold1
*139 hold2
*140 hold3
*141 hold4
*142 input1
*143 output2
*144 output3
*145 output4
*146 output5

*PORTS
clk I
out[0] O
out[1] O
out[2] O
out[3] O
rst I

*D_NET *3 0.00205282
*CONN
*P clk I
*I *135:A I *D sky130_fd_sc_hd__clkbuf_16
*CAP
1 clk 0.000665324
2 *135:A 0.000665324
3 *135:A out[0] 0.000191748
4 *135:A *124:A1 0.000340528
5 *135:A *124:B1 4.82863e-05
6 *135:A *131:CLK 0.000141606
7 *135:A *142:A 0
8 *135:A *22:14 0
*RES
1 clk *135:A 14.5685 
*END

*D_NET *4 0.000873543
*CONN
*P out[0] O
*I *143:X O *D sky130_fd_sc_hd__buf_2
*CAP
1 out[0] 0.000325193
2 *143:X 0.000325193
3 out[0] *122:A 0
4 out[0] *142:A 3.14094e-05
5 out[0] *22:14 0
6 *135:A out[0] 0.000191748
*RES
1 *143:X out[0] 7.45503 
*END

*D_NET *5 0.000479955
*CONN
*P out[1] O
*I *144:X O *D sky130_fd_sc_hd__buf_2
*CAP
1 out[1] 0.000239978
2 *144:X 0.000239978
*RES
1 *144:X out[1] 5.35677 
*END

*D_NET *6 0.000939819
*CONN
*P out[2] O
*I *145:X O *D sky130_fd_sc_hd__buf_2
*CAP
1 out[2] 0.00046723
2 *145:X 0.00046723
3 out[2] out[3] 0
4 out[2] *134:D 5.35969e-06
*RES
1 *145:X out[2] 10.875 
*END

*D_NET *7 0.000823549
*CONN
*P out[3] O
*I *146:X O *D sky130_fd_sc_hd__buf_2
*CAP
1 out[3] 0.000394491
2 *146:X 0.000394491
3 out[3] *127:A 3.45679e-05
4 out[2] out[3] 0
*RES
1 *146:X out[3] 10.185 
*END

*D_NET *8 0.00106865
*CONN
*P rst I
*I *142:A I *D sky130_fd_sc_hd__clkbuf_2
*CAP
1 rst 0.000518621
2 *142:A 0.000518621
3 out[0] *142:A 3.14094e-05
4 *135:A *142:A 0
*RES
1 rst *142:A 11.1843 
*END

*D_NET *9 0.000799401
*CONN
*I *131:D I *D sky130_fd_sc_hd__dfrtp_1
*I *121:Y O *D sky130_fd_sc_hd__inv_2
*CAP
1 *131:D 0.000292527
2 *121:Y 0.000292527
3 *131:D *131:RESET_B 0.000116165
4 *131:D *132:D 9.81819e-05
5 *131:D *22:14 0
*RES
1 *121:Y *131:D 12.48 
*END

*D_NET *10 0.00146059
*CONN
*I *132:D I *D sky130_fd_sc_hd__dfrtp_1
*I *123:X O *D sky130_fd_sc_hd__xor2_1
*CAP
1 *132:D 0.000606123
2 *123:X 0.000606123
3 *132:D *123:B 4.82919e-05
4 *132:D *132:CLK 6.71009e-05
5 *132:D *22:14 0
6 *132:D *23:8 3.47711e-05
7 *131:D *132:D 9.81819e-05
*RES
1 *123:X *132:D 14.7638 
*END

*D_NET *11 0.000894676
*CONN
*I *133:D I *D sky130_fd_sc_hd__dfrtp_1
*I *126:Y O *D sky130_fd_sc_hd__nor2_1
*CAP
1 *133:D 0.000388827
2 *126:Y 0.000388827
3 *133:D *133:RESET_B 6.8731e-05
4 *133:D *25:8 4.82919e-05
*RES
1 *126:Y *133:D 9.515 
*END

*D_NET *12 0.00039958
*CONN
*I *134:D I *D sky130_fd_sc_hd__dfrtp_1
*I *127:X O *D sky130_fd_sc_hd__xor2_1
*CAP
1 *134:D 0.000140261
2 *127:X 0.000140261
3 *134:D *127:B 0.000113698
4 *134:D *145:A 0
5 out[2] *134:D 5.35969e-06
*RES
1 *127:X *134:D 9.375 
*END

*D_NET *13 0.0010749
*CONN
*I *131:RESET_B I *D sky130_fd_sc_hd__dfrtp_1
*I *122:Y O *D sky130_fd_sc_hd__inv_2
*CAP
1 *131:RESET_B 0.000359466
2 *122:Y 0.000359466
3 *131:RESET_B *122:A 0
4 *131:RESET_B *143:A 0.000239807
5 *131:RESET_B *22:14 0
6 *131:D *131:RESET_B 0.000116165
*RES
1 *122:Y *131:RESET_B 11.45 
*END

*D_NET *14 0.000554946
*CONN
*I *132:RESET_B I *D sky130_fd_sc_hd__dfrtp_1
*I *128:Y O *D sky130_fd_sc_hd__inv_2
*CAP
1 *132:RESET_B 0.000140136
2 *128:Y 0.000140136
3 *132:RESET_B *24:16 0.000251595
4 *132:RESET_B *24:38 2.30797e-05
*RES
1 *128:Y *132:RESET_B 8.765 
*END

*D_NET *15 0.000442061
*CONN
*I *133:RESET_B I *D sky130_fd_sc_hd__dfrtp_1
*I *129:Y O *D sky130_fd_sc_hd__inv_2
*CAP
1 *133:RESET_B 9.1218e-05
2 *129:Y 9.1218e-05
3 *133:RESET_B *126:A 9.54469e-05
4 *133:RESET_B *25:21 9.54469e-05
5 *133:D *133:RESET_B 6.8731e-05
*RES
1 *129:Y *133:RESET_B 7.8125 
*END

*D_NET *16 0.000323803
*CONN
*I *134:RESET_B I *D sky130_fd_sc_hd__dfrtp_1
*I *130:Y O *D sky130_fd_sc_hd__inv_2
*CAP
1 *134:RESET_B 0.000148475
2 *130:Y 0.000148475
3 *134:RESET_B *130:A 2.68526e-05
*RES
1 *130:Y *134:RESET_B 7.52 
*END

*D_NET *17 0.00196381
*CONN
*I *126:A I *D sky130_fd_sc_hd__nor2_1
*I *124:Y O *D sky130_fd_sc_hd__a21oi_1
*CAP
1 *126:A 0.000526003
2 *124:Y 0.000526003
3 *126:A *124:A1 0.000259066
4 *126:A *125:A 0
5 *126:A *127:B 0
6 *126:A *134:CLK 0
7 *126:A *136:A 0.000120655
8 *126:A *141:A 0.00041242
9 *126:A *25:21 2.42158e-05
10 *133:RESET_B *126:A 9.54469e-05
*RES
1 *124:Y *126:A 17.19 
*END

*D_NET *18 0.00120533
*CONN
*I *126:B I *D sky130_fd_sc_hd__nor2_1
*I *127:B I *D sky130_fd_sc_hd__xor2_1
*I *125:X O *D sky130_fd_sc_hd__and3_1
*CAP
1 *126:B 0.000200566
2 *127:B 0.000159675
3 *125:X 4.24747e-05
4 *18:8 0.000402716
5 *126:B *134:CLK 0.000195888
6 *127:B *134:CLK 2.84864e-05
7 *127:B *145:A 0
8 *127:B *25:21 0
9 *18:8 *134:CLK 6.18274e-05
10 *126:A *127:B 0
11 *134:D *127:B 0.000113698
*RES
1 *125:X *18:8 4.47 
2 *18:8 *127:B 6.81 
3 *18:8 *126:B 6.39 
*END

*D_NET *19 0.00139066
*CONN
*I *137:A I *D sky130_fd_sc_hd__clkbuf_16
*I *136:A I *D sky130_fd_sc_hd__clkbuf_16
*I *135:X O *D sky130_fd_sc_hd__clkbuf_16
*CAP
1 *137:A 0.000185075
2 *136:A 0.000304783
3 *135:X 0
4 *19:4 0.000489858
5 *136:A *124:A1 6.05513e-05
6 *136:A *141:A 0.000136877
7 *137:A *21:8 9.28568e-05
8 *126:A *136:A 0.000120655
*RES
1 *135:X *19:4 1.6 
2 *19:4 *136:A 10.1 
3 *19:4 *137:A 5.005 
*END

*D_NET *20 0.000996476
*CONN
*I *131:CLK I *D sky130_fd_sc_hd__dfrtp_1
*I *133:CLK I *D sky130_fd_sc_hd__dfrtp_1
*I *136:X O *D sky130_fd_sc_hd__clkbuf_16
*CAP
1 *131:CLK 0.000170687
2 *133:CLK 0.000185115
3 *136:X 0
4 *20:6 0.000355802
5 *131:CLK *124:A2 0.000143266
6 *131:CLK *22:14 0
7 *133:CLK *22:14 0
8 *135:A *131:CLK 0.000141606
*RES
1 *136:X *20:6 3.6 
2 *20:6 *133:CLK 6.54 
3 *20:6 *131:CLK 7.53 
*END

*D_NET *21 0.00240557
*CONN
*I *132:CLK I *D sky130_fd_sc_hd__dfrtp_1
*I *134:CLK I *D sky130_fd_sc_hd__dfrtp_1
*I *137:X O *D sky130_fd_sc_hd__clkbuf_16
*CAP
1 *132:CLK 0.000190195
2 *134:CLK 0.000250469
3 *137:X 0.000454975
4 *21:8 0.000895639
5 *132:CLK *125:A 1.82476e-05
6 *132:CLK *23:8 3.64998e-06
7 *132:CLK *23:10 4.49498e-05
8 *132:CLK *23:36 3.05238e-05
9 *134:CLK *125:A 7.07664e-05
10 *126:A *134:CLK 0
11 *126:B *134:CLK 0.000195888
12 *127:B *134:CLK 2.84864e-05
13 *132:D *132:CLK 6.71009e-05
14 *137:A *21:8 9.28568e-05
15 *18:8 *134:CLK 6.18274e-05
*RES
1 *137:X *21:8 9.915 
2 *21:8 *134:CLK 8.865 
3 *21:8 *132:CLK 7.395 
*END

*D_NET *22 0.00310147
*CONN
*I *122:A I *D sky130_fd_sc_hd__inv_2
*I *130:A I *D sky130_fd_sc_hd__inv_2
*I *128:A I *D sky130_fd_sc_hd__inv_2
*I *129:A I *D sky130_fd_sc_hd__inv_2
*I *142:X O *D sky130_fd_sc_hd__clkbuf_2
*CAP
1 *122:A 0.000161213
2 *130:A 4.71346e-05
3 *128:A 0
4 *129:A 0
5 *142:X 0
6 *22:21 0.000201511
7 *22:14 0.000838942
8 *22:6 0.000845779
9 *122:A *143:A 0.0001249
10 *130:A *24:16 5.23992e-05
11 *22:14 *124:A2 0.000385736
12 *22:14 *125:C 4.21973e-05
13 *22:21 *124:A2 8.65439e-05
14 *22:21 *125:C 0.000151719
15 *22:21 *24:16 0.000136542
16 out[0] *122:A 0
17 out[0] *22:14 0
18 *131:CLK *22:14 0
19 *131:D *22:14 0
20 *131:RESET_B *122:A 0
21 *131:RESET_B *22:14 0
22 *132:D *22:14 0
23 *133:CLK *22:14 0
24 *134:RESET_B *130:A 2.68526e-05
25 *135:A *22:14 0
*RES
1 *142:X *22:6 3.6 
2 *22:6 *22:14 14.81 
3 *22:14 *129:A 1.6 
4 *22:14 *22:21 4.245 
5 *22:21 *128:A 1.6 
6 *22:21 *130:A 2.74 
7 *22:6 *122:A 6.375 
*END

*D_NET *23 0.00489044
*CONN
*I *143:A I *D sky130_fd_sc_hd__buf_2
*I *139:A I *D sky130_fd_sc_hd__dlygate4sd3_1
*I *124:A1 I *D sky130_fd_sc_hd__a21oi_1
*I *125:A I *D sky130_fd_sc_hd__and3_1
*I *131:Q O *D sky130_fd_sc_hd__dfrtp_1
*CAP
1 *143:A 0.000626978
2 *139:A 4.7631e-05
3 *124:A1 0.000320698
4 *125:A 0.000141615
5 *131:Q 0.000215139
6 *23:36 0.000836984
7 *23:10 0.000534418
8 *23:8 0.000449619
9 *124:A1 *124:B1 4.82863e-05
10 *124:A1 *141:A 0.000316415
11 *139:A *123:B 0.000124895
12 *23:36 *24:38 0
13 *122:A *143:A 0.0001249
14 *126:A *124:A1 0.000259066
15 *126:A *125:A 0
16 *131:RESET_B *143:A 0.000239807
17 *132:CLK *125:A 1.82476e-05
18 *132:CLK *23:8 3.64998e-06
19 *132:CLK *23:10 4.49498e-05
20 *132:CLK *23:36 3.05238e-05
21 *132:D *23:8 3.47711e-05
22 *134:CLK *125:A 7.07664e-05
23 *135:A *124:A1 0.000340528
24 *136:A *124:A1 6.05513e-05
*RES
1 *131:Q *23:8 6.12 
2 *23:8 *23:10 1.38 
3 *23:10 *125:A 6.255 
4 *23:10 *124:A1 12.81 
5 *23:8 *23:36 2.655 
6 *23:36 *139:A 4.74 
7 *23:36 *143:A 13.89 
*END

*D_NET *24 0.00530296
*CONN
*I *144:A I *D sky130_fd_sc_hd__buf_2
*I *140:A I *D sky130_fd_sc_hd__dlygate4sd3_1
*I *125:B I *D sky130_fd_sc_hd__and3_1
*I *124:A2 I *D sky130_fd_sc_hd__a21oi_1
*I *132:Q O *D sky130_fd_sc_hd__dfrtp_1
*CAP
1 *144:A 0.000462823
2 *140:A 5.50616e-05
3 *125:B 0
4 *124:A2 0.000809441
5 *132:Q 0.000298686
6 *24:38 0.000685467
7 *24:16 0.00112774
8 *24:8 0.000784571
9 *130:A *24:16 5.23992e-05
10 *131:CLK *124:A2 0.000143266
11 *132:RESET_B *24:16 0.000251595
12 *132:RESET_B *24:38 2.30797e-05
13 *22:14 *124:A2 0.000385736
14 *22:21 *124:A2 8.65439e-05
15 *22:21 *24:16 0.000136542
16 *23:36 *24:38 0
*RES
1 *132:Q *24:8 6.81 
2 *24:8 *24:16 8.39 
3 *24:16 *124:A2 16.655 
4 *24:16 *125:B 1.6 
5 *24:8 *24:38 4.655 
6 *24:38 *140:A 2.395 
7 *24:38 *144:A 8.62 
*END

*D_NET *25 0.00253537
*CONN
*I *141:A I *D sky130_fd_sc_hd__dlygate4sd3_1
*I *125:C I *D sky130_fd_sc_hd__and3_1
*I *145:A I *D sky130_fd_sc_hd__buf_2
*I *133:Q O *D sky130_fd_sc_hd__dfrtp_1
*CAP
1 *141:A 0.000137362
2 *125:C 0.000229041
3 *145:A 0.000151546
4 *133:Q 2.54989e-05
5 *25:21 0.000476847
6 *25:8 0.000287488
7 *124:A1 *141:A 0.000316415
8 *126:A *141:A 0.00041242
9 *126:A *25:21 2.42158e-05
10 *127:B *145:A 0
11 *127:B *25:21 0
12 *133:D *25:8 4.82919e-05
13 *133:RESET_B *25:21 9.54469e-05
14 *134:D *145:A 0
15 *136:A *141:A 0.000136877
16 *22:14 *125:C 4.21973e-05
17 *22:21 *125:C 0.000151719
*RES
1 *133:Q *25:8 4.05 
2 *25:8 *145:A 5.94 
3 *25:8 *25:21 2.145 
4 *25:21 *125:C 6.99 
5 *25:21 *141:A 8.865 
*END

*D_NET *26 0.00112887
*CONN
*I *138:A I *D sky130_fd_sc_hd__dlygate4sd3_1
*I *146:A I *D sky130_fd_sc_hd__buf_2
*I *134:Q O *D sky130_fd_sc_hd__dfrtp_1
*CAP
1 *138:A 0.000173959
2 *146:A 0.000213148
3 *134:Q 0
4 *26:4 0.000387107
5 *146:A *127:A 0.000354653
*RES
1 *134:Q *26:4 1.6 
2 *26:4 *146:A 9.92 
3 *26:4 *138:A 4.12 
*END

*D_NET *27 0.00114684
*CONN
*I *127:A I *D sky130_fd_sc_hd__xor2_1
*I *138:X O *D sky130_fd_sc_hd__dlygate4sd3_1
*CAP
1 *127:A 0.000378809
2 *138:X 0.000378809
3 out[3] *127:A 3.45679e-05
4 *146:A *127:A 0.000354653
*RES
1 *138:X *127:A 14.22 
*END

*D_NET *28 0.000453249
*CONN
*I *121:A I *D sky130_fd_sc_hd__inv_2
*I *123:A I *D sky130_fd_sc_hd__xor2_1
*I *139:X O *D sky130_fd_sc_hd__dlygate4sd3_1
*CAP
1 *121:A 0
2 *123:A 0.000122421
3 *139:X 2.20267e-05
4 *28:6 0.000144448
5 *123:A *123:B 0.000142661
6 *28:6 *123:B 2.16917e-05
*RES
1 *139:X *28:6 2.05 
2 *28:6 *123:A 4.12 
3 *28:6 *121:A 1.6 
*END

*D_NET *29 0.00113522
*CONN
*I *123:B I *D sky130_fd_sc_hd__xor2_1
*I *140:X O *D sky130_fd_sc_hd__dlygate4sd3_1
*CAP
1 *123:B 0.000398842
2 *140:X 0.000398842
3 *123:A *123:B 0.000142661
4 *132:D *123:B 4.82919e-05
5 *139:A *123:B 0.000124895
6 *28:6 *123:B 2.16917e-05
*RES
1 *140:X *123:B 9.875 
*END

*D_NET *30 0.000116037
*CONN
*I *124:B1 I *D sky130_fd_sc_hd__a21oi_1
*I *141:X O *D sky130_fd_sc_hd__dlygate4sd3_1
*CAP
1 *124:B1 9.73191e-06
2 *141:X 9.73191e-06
3 *124:A1 *124:B1 4.82863e-05
4 *135:A *124:B1 4.82863e-05
*RES
1 *141:X *124:B1 3.65 
*END
